<?xml version="1.0" encoding="UTF-8"?>

<!-- generated on 2024-05-13 20:17:50.827323 by osmWebWizard.py UNKNOWN
<configuration>
    <net-file value="/home/acll/workspace/sumotraci-greenwave/src/2024-05-13-20-17-45/osm.net.xml.gz"/>
    <output-trip-file value="/home/acll/workspace/sumotraci-greenwave/src/2024-05-13-20-17-45/osm.passenger.trips.xml"/>
    <route-file value="/home/acll/workspace/sumotraci-greenwave/src/2024-05-13-20-17-45/osm.passenger.rou.xml"/>
    <prefix value="veh"/>
    <trip-attributes value="departLane=&quot;best&quot;"/>
    <fringe-start-attributes value="departSpeed=&quot;max&quot;"/>
    <vehicle-class value="passenger"/>
    <lanes value="True"/>
    <fringe-factor value="5"/>
    <allow-fringe.min-length value="1000.0"/>
    <via-edge-types value="highway.motorway,highway.motorway_link,highway.trunk_link,highway.primary_link,highway.secondary_link,highway.tertiary_link"/>
    <min-distance value="300.0"/>
    <min-distance.fringe value="10.0"/>
    <remove-loops value="True"/>
    <validate value="True"/>
    <insertion-density value="12.0"/>
</configuration>
-->

<!-- generated on 2024-05-13 20:17:50 by Eclipse SUMO duarouter Version 1.19.0
<configuration xmlns:xsi="http://www.w3.org/2001/XMLSchema-instance" xsi:noNamespaceSchemaLocation="http://sumo.dlr.de/xsd/duarouterConfiguration.xsd">

    <input>
        <net-file value="/home/acll/workspace/sumotraci-greenwave/src/2024-05-13-20-17-45/osm.net.xml.gz"/>
        <route-files value="/home/acll/workspace/sumotraci-greenwave/src/2024-05-13-20-17-45/osm.passenger.trips.xml"/>
    </input>

    <output>
        <output-file value="/home/acll/workspace/sumotraci-greenwave/src/2024-05-13-20-17-45/osm.passenger.trips.xml.tmp"/>
        <alternatives-output value="NUL"/>
        <write-trips value="true"/>
    </output>

    <processing>
        <remove-loops value="true"/>
    </processing>

    <time>
        <begin value="0.0"/>
        <end value="3600.0"/>
    </time>

    <report>
        <no-warnings value="true"/>
        <ignore-errors value="true"/>
        <no-step-log value="true"/>
    </report>

</configuration>
-->

<routes xmlns:xsi="http://www.w3.org/2001/XMLSchema-instance" xsi:noNamespaceSchemaLocation="http://sumo.dlr.de/xsd/routes_file.xsd">
    <vType id="veh_passenger" vClass="passenger"/>
    <vType id="emergency_emergency" vClass="emergency" color="red">
        <param key="has.bluelight.device" value="true" />
    </vType>
    <trip id="veh0" type="veh_passenger" depart="0.00" departLane="best" departSpeed="max" from="261125115" to="-127123468#0"/>
    <trip id="veh1" type="veh_passenger" depart="2.32" departLane="best" from="971533808" to="-222073963#2"/>
    <trip id="veh2" type="veh_passenger" depart="4.63" departLane="best" from="263544943#2" to="263544917#2"/>
    <trip id="veh3" type="veh_passenger" depart="6.95" departLane="best" from="298736371#0" to="133750882#7"/>
    <trip id="veh4" type="veh_passenger" depart="9.26" departLane="best" from="133750560#1" to="127123818#1"/>
    <trip id="veh5" type="veh_passenger" depart="11.58" departLane="best" departSpeed="max" from="-134281339#6" to="134238320#7"/>
    <trip id="veh6" type="veh_passenger" depart="13.89" departLane="best" from="-127124039#1" to="134279019#2"/>
    <trip id="veh7" type="veh_passenger" depart="16.21" departLane="best" from="261125118#3" to="134281339#1"/>
    <trip id="veh8" type="veh_passenger" depart="18.52" departLane="best" departSpeed="max" from="-134281339#6" to="-202710267#1"/>
    <trip id="veh9" type="veh_passenger" depart="20.84" departLane="best" from="277455125#2" to="-127123425#0"/>
    <trip id="veh10" type="veh_passenger" depart="23.15" departLane="best" from="277455125#11" to="263544920"/>
    <trip id="veh11" type="veh_passenger" depart="25.47" departLane="best" departSpeed="max" from="127123428#0" to="-134126286#0"/>
    <trip id="veh12" type="veh_passenger" depart="27.78" departLane="best" departSpeed="max" from="917977709#0" to="127123468#1"/>
    <trip id="veh13" type="veh_passenger" depart="30.10" departLane="best" from="134023093#6" to="-133750994#6"/>
    <trip id="veh14" type="veh_passenger" depart="32.41" departLane="best" departSpeed="max" from="298736298#0" to="221889954#3"/>
    <trip id="veh15" type="veh_passenger" depart="34.73" departLane="best" from="277455125#12" to="263544944#1"/>
    <trip id="veh16" type="veh_passenger" depart="37.04" departLane="best" from="134238321#1" to="918067093#2"/>
    <trip id="veh17" type="veh_passenger" depart="39.36" departLane="best" departSpeed="max" from="127124210" to="263544927"/>
    <trip id="veh18" type="veh_passenger" depart="41.67" departLane="best" from="298734535#2" to="222073970#4"/>
    <trip id="veh19" type="veh_passenger" depart="43.99" departLane="best" from="263544919#2" to="-127124209"/>
    <trip id="veh20" type="veh_passenger" depart="46.30" departLane="best" from="-133803818#4" to="222073970#5"/>
    <trip id="veh22" type="veh_passenger" depart="50.93" departLane="best" from="-222073975#0" to="132845550"/>
    <trip id="veh23" type="veh_passenger" depart="53.25" departLane="best" from="127124044" to="-202710265#0"/>
    <trip id="veh25" type="veh_passenger" depart="57.88" departLane="best" from="261125116#1" to="-222073963#1"/>
    <trip id="veh26" type="veh_passenger" depart="60.20" departLane="best" from="134126942" to="133750881#7"/>
    <trip id="veh27" type="veh_passenger" depart="62.51" departLane="best" from="918067095#1" to="918067091#1"/>
    <trip id="veh29" type="veh_passenger" depart="67.14" departLane="best" from="-221889951#0" to="-127124039#1"/>
    <trip id="veh30" type="veh_passenger" depart="69.46" departLane="best" from="119216884#1" to="1134749836"/>
    <trip id="veh32" type="veh_passenger" depart="74.09" departLane="best" from="298736342#2" to="119216884#4"/>
    <trip id="veh33" type="veh_passenger" depart="76.40" departLane="best" from="261125122#4" to="-133750994#3"/>
    <trip id="veh34" type="veh_passenger" depart="78.72" departLane="best" departSpeed="max" from="300591938#0" to="-134125553#2"/>
    <trip id="veh36" type="veh_passenger" depart="83.35" departLane="best" from="134281339#5" to="-971536292"/>
    <trip id="veh38" type="veh_passenger" depart="87.98" departLane="best" from="132845865" to="221889953"/>
    <trip id="veh39" type="veh_passenger" depart="90.29" departLane="best" from="971536293" to="134238321#8"/>
    <trip id="veh40" type="veh_passenger" depart="92.61" departLane="best" from="134023093#3" to="-127124210"/>
    <trip id="veh43" type="veh_passenger" depart="99.55" departLane="best" from="971536290" to="134279019#7"/>
    <trip id="veh44" type="veh_passenger" depart="101.87" departLane="best" from="918067089#3" to="298736326#0"/>
    <trip id="veh45" type="veh_passenger" depart="104.18" departLane="best" departSpeed="max" from="127123423#6" to="263544943#2"/>
    <trip id="veh46" type="veh_passenger" depart="106.50" departLane="best" from="263544914#9" to="134279020#7"/>
    <trip id="veh47" type="veh_passenger" depart="108.81" departLane="best" from="777635108" to="263544911#1"/>
    <trip id="veh48" type="veh_passenger" depart="111.13" departLane="best" from="-133938816#2" to="918067089#1"/>
    <trip id="veh49" type="veh_passenger" depart="113.45" departLane="best" from="134126285#1" to="134238204#4"/>
    <trip id="veh51" type="veh_passenger" depart="118.08" departLane="best" from="119108623#2" to="261125122#3"/>
    <trip id="veh52" type="veh_passenger" depart="120.39" departLane="best" from="221889948#2" to="-134126285#0"/>
    <trip id="veh54" type="veh_passenger" depart="125.02" departLane="best" departSpeed="max" from="264696806#0" to="134279019#7"/>
    <trip id="veh55" type="veh_passenger" depart="127.34" departLane="best" from="-1132292623" to="123919517#2"/>
    <trip id="veh56" type="veh_passenger" depart="129.65" departLane="best" from="-127123468#1" to="915629311"/>
    <trip id="veh57" type="veh_passenger" depart="131.97" departLane="best" departSpeed="max" from="298736343#0" to="298734588#3"/>
    <trip id="veh58" type="veh_passenger" depart="134.28" departLane="best" from="119109418#1" to="-127124213"/>
    <trip id="veh59" type="veh_passenger" depart="136.60" departLane="best" departSpeed="max" from="298736343#0" to="918067088#0"/>
    <trip id="veh60" type="veh_passenger" depart="138.91" departLane="best" from="-134020718#0" to="134126574#1"/>
    <trip id="veh61" type="veh_passenger" depart="141.23" departLane="best" from="133750994#2" to="263544950#5"/>
    <trip id="veh63" type="veh_passenger" depart="145.86" departLane="best" departSpeed="max" from="134125080#0" to="134281339#6"/>
    <trip id="veh64" type="veh_passenger" depart="148.17" departLane="best" from="-656849616" to="298736345#0"/>
    <trip id="veh65" type="veh_passenger" depart="150.49" departLane="best" from="133750881#1" to="-202710267#1"/>
    <trip id="veh66" type="veh_passenger" depart="152.80" departLane="best" from="-134238321#8" to="263544944#1"/>
    <trip id="veh67" type="veh_passenger" depart="155.12" departLane="best" departSpeed="max" from="-134279019#7" to="119216884#2"/>
    <trip id="veh68" type="veh_passenger" depart="157.43" departLane="best" from="971533810" to="263544911#5"/>
    <trip id="veh70" type="veh_passenger" depart="162.06" departLane="best" departSpeed="max" from="127123427#0" to="-202710265#2"/>
    <trip id="veh71" type="veh_passenger" depart="164.38" departLane="best" from="133750994#4" to="261125116#0"/>
    <trip id="veh72" type="veh_passenger" depart="166.69" departLane="best" from="-221889951#0" to="-658253329"/>
    <trip id="veh73" type="veh_passenger" depart="169.01" departLane="best" from="298736316#0" to="-133535940"/>
    <trip id="veh74" type="veh_passenger" depart="171.33" departLane="best" from="134281339#0" to="-134125546#0"/>
    <trip id="veh75" type="veh_passenger" depart="173.64" departLane="best" from="915565231" to="141429103#7"/>
    <trip id="veh76" type="veh_passenger" depart="175.96" departLane="best" from="134125078#1" to="277455125#1"/>
    <trip id="veh77" type="veh_passenger" depart="178.27" departLane="best" from="277455125#12" to="134238322#0"/>
    <trip id="veh78" type="veh_passenger" depart="180.59" departLane="best" from="133750881#2" to="-134126279#2"/>
    <trip id="veh79" type="veh_passenger" depart="182.90" departLane="best" from="263544914#9" to="263544917#2"/>
    <trip id="veh80" type="veh_passenger" depart="185.22" departLane="best" from="918067093#1" to="-133750995"/>
    <trip id="veh81" type="veh_passenger" depart="187.53" departLane="best" departSpeed="max" from="133384655#0" to="127123663"/>
    <trip id="veh84" type="veh_passenger" depart="194.48" departLane="best" from="133750560#1" to="119108623#1"/>
    <trip id="veh85" type="veh_passenger" depart="196.79" departLane="best" departSpeed="max" from="-222079873#1" to="915626369"/>
    <trip id="veh86" type="veh_passenger" depart="199.11" departLane="best" from="133750994#8" to="298736326#2"/>
    <trip id="veh87" type="veh_passenger" depart="201.42" departLane="best" from="-134279019#4" to="-127124211"/>
    <trip id="veh88" type="veh_passenger" depart="203.74" departLane="best" from="97332407" to="298734594#0"/>
    <trip id="veh90" type="veh_passenger" depart="208.37" departLane="best" departSpeed="max" from="298736298#0" to="-134126572#0"/>
    <trip id="veh91" type="veh_passenger" depart="210.68" departLane="best" from="134125552#0" to="221889948#0"/>
    <trip id="veh92" type="veh_passenger" depart="213.00" departLane="best" departSpeed="max" from="133384655#0" to="-132845543#0"/>
    <trip id="veh93" type="veh_passenger" depart="215.31" departLane="best" departSpeed="max" from="127124210" to="918414112"/>
    <trip id="veh94" type="veh_passenger" depart="217.63" departLane="best" from="656849616" to="277455125#1"/>
    <trip id="veh96" type="veh_passenger" depart="222.26" departLane="best" departSpeed="max" from="917977709#0" to="971884058"/>
    <trip id="veh97" type="veh_passenger" depart="224.57" departLane="best" from="134279023" to="263544943#11"/>
    <trip id="veh98" type="veh_passenger" depart="226.89" departLane="best" from="918067089#2" to="141429104#2"/>
    <trip id="veh99" type="veh_passenger" depart="229.21" departLane="best" from="134238322#4" to="263544946#7"/>
    <trip id="veh100" type="veh_passenger" depart="231.52" departLane="best" departSpeed="max" from="-133750881#8" to="141449651#0"/>
    <trip id="veh101" type="veh_passenger" depart="233.84" departLane="best" from="134126286#0" to="298736315#3"/>
    <trip id="veh102" type="veh_passenger" depart="236.15" departLane="best" from="133803818#5" to="134238320#7"/>
    <trip id="veh103" type="veh_passenger" depart="238.47" departLane="best" from="141449651#0" to="263544917#2"/>
    <trip id="veh104" type="veh_passenger" depart="240.78" departLane="best" from="222073963#2" to="-134124850#0"/>
    <trip id="veh106" type="veh_passenger" depart="245.41" departLane="best" from="141449651#0" to="222073970#6"/>
    <trip id="veh107" type="veh_passenger" depart="247.73" departLane="best" departSpeed="max" from="133535941" to="141449651#0"/>
    <trip id="veh109" type="veh_passenger" depart="252.36" departLane="best" from="-134279020#0" to="263544943#1"/>
    <trip id="veh110" type="veh_passenger" depart="254.67" departLane="best" from="-222073964#4" to="133750994#4"/>
    <trip id="veh111" type="veh_passenger" depart="256.99" departLane="best" from="263544914#4" to="119109418#3"/>
    <trip id="veh112" type="veh_passenger" depart="259.30" departLane="best" from="119216884#10" to="263544946#7"/>
    <trip id="veh113" type="veh_passenger" depart="261.62" departLane="best" from="-133750994#7" to="134125553#1"/>
    <trip id="veh114" type="veh_passenger" depart="263.93" departLane="best" from="971884058" to="971896237"/>
    <trip id="veh115" type="veh_passenger" depart="266.25" departLane="best" from="133750994#8" to="-202710267#3"/>
    <trip id="veh117" type="veh_passenger" depart="270.88" departLane="best" departSpeed="max" from="298736343#0" to="298736371#1"/>
    <trip id="veh118" type="veh_passenger" depart="273.19" departLane="best" from="127124043" to="-134126289#2"/>
    <trip id="veh120" type="veh_passenger" depart="277.82" departLane="best" from="-221889951#1" to="918414112"/>
    <trip id="veh121" type="veh_passenger" depart="280.14" departLane="best" from="261125122#3" to="-127123425#0"/>
    <trip id="veh122" type="veh_passenger" depart="282.46" departLane="best" from="263544911#4" to="918067087#1"/>
    <trip id="veh123" type="veh_passenger" depart="284.77" departLane="best" from="-134125554#1" to="134023093#3"/>
    <trip id="veh125" type="veh_passenger" depart="289.40" departLane="best" departSpeed="max" from="-870847391#4" to="221889956"/>
    <trip id="veh126" type="veh_passenger" depart="291.72" departLane="best" from="263544933" to="-134279020#4"/>
    <trip id="veh127" type="veh_passenger" depart="294.03" departLane="best" from="222073976#1" to="971884058"/>
    <trip id="veh128" type="veh_passenger" depart="296.35" departLane="best" from="-134125554#0" to="-658253329"/>
    <trip id="veh129" type="veh_passenger" depart="298.66" departLane="best" departSpeed="max" from="298736298#0" to="-133750994#1"/>
    <trip id="veh130" type="veh_passenger" depart="300.98" departLane="best" departSpeed="max" from="-1149232280" to="264696806#15"/>
    <trip id="veh131" type="veh_passenger" depart="303.29" departLane="best" from="263544943#5" to="141428838"/>
    <trip id="veh132" type="veh_passenger" depart="305.61" departLane="best" from="133750882#0" to="-127123427#0"/>
    <trip id="veh133" type="veh_passenger" depart="307.92" departLane="best" from="-133750997" to="298736371#5"/>
    <trip id="veh135" type="veh_passenger" depart="312.55" departLane="best" from="298734552#0" to="141429104#3"/>
    <trip id="veh137" type="veh_passenger" depart="317.18" departLane="best" from="264696806#5" to="298736326#0"/>
    <trip id="veh140" type="veh_passenger" depart="324.13" departLane="best" departSpeed="max" from="133384655#0" to="222073976#0"/>
    <trip id="veh141" type="veh_passenger" depart="326.44" departLane="best" from="277455125#3" to="298736371#4"/>
    <trip id="veh142" type="veh_passenger" depart="328.76" departLane="best" from="-127123819#1" to="298734534#2"/>
    <trip id="veh143" type="veh_passenger" depart="331.07" departLane="best" departSpeed="max" from="127123425#0" to="915629312#1"/>
    <trip id="veh145" type="veh_passenger" depart="335.70" departLane="best" from="277455125#3" to="1132294177#2"/>
    <trip id="veh146" type="veh_passenger" depart="338.02" departLane="best" from="264696806#15" to="-133938816#3"/>
    <trip id="veh147" type="veh_passenger" depart="340.34" departLane="best" from="298736327#1" to="298736316#0"/>
    <trip id="veh148" type="veh_passenger" depart="342.65" departLane="best" from="-202710265#2" to="298734538#0"/>
    <trip id="veh149" type="veh_passenger" depart="344.97" departLane="best" from="134023093#0" to="119216884#13"/>
    <trip id="veh150" type="veh_passenger" depart="347.28" departLane="best" from="264696806#4" to="-222073964#6"/>
    <trip id="veh152" type="veh_passenger" depart="351.91" departLane="best" from="918067089#1" to="119108623#1"/>
    <trip id="veh153" type="veh_passenger" depart="354.23" departLane="best" departSpeed="max" from="261125115" to="133750996"/>
    <trip id="veh154" type="veh_passenger" depart="356.54" departLane="best" from="918067092" to="134279020#7"/>
    <trip id="veh155" type="veh_passenger" depart="358.86" departLane="best" from="915629310" to="134023093#3"/>
    <trip id="veh156" type="veh_passenger" depart="361.17" departLane="best" from="918067089#3" to="134238204#4"/>
    <trip id="veh157" type="veh_passenger" depart="363.49" departLane="best" from="918067088#1" to="1132294177#0"/>
    <trip id="veh158" type="veh_passenger" depart="365.80" departLane="best" from="263544941#1" to="119216884#3"/>
    <trip id="veh159" type="veh_passenger" depart="368.12" departLane="best" from="220347425#3" to="134238322#3"/>
    <trip id="veh160" type="veh_passenger" depart="370.43" departLane="best" departSpeed="max" from="127124212" to="141429103#9"/>
    <trip id="veh161" type="veh_passenger" depart="372.75" departLane="best" from="-298736345#1" to="263544940#3"/>
    <trip id="veh163" type="veh_passenger" depart="377.38" departLane="best" from="134238321#6" to="263544943#12"/>
    <trip id="veh164" type="veh_passenger" depart="379.69" departLane="best" from="263544943#7" to="263544917#0"/>
    <trip id="veh165" type="veh_passenger" depart="382.01" departLane="best" from="-127124039#1" to="-133535940"/>
    <trip id="veh166" type="veh_passenger" depart="384.32" departLane="best" from="263544911#5" to="127123423#5"/>
    <trip id="veh167" type="veh_passenger" depart="386.64" departLane="best" from="119109419" to="298736314#3"/>
    <trip id="veh168" type="veh_passenger" depart="388.95" departLane="best" from="263544925" to="119109419"/>
    <trip id="veh170" type="veh_passenger" depart="393.58" departLane="best" departSpeed="max" from="133384655#0" to="119109418#1"/>
    <trip id="veh174" type="veh_passenger" depart="402.85" departLane="best" from="119108623#4" to="134281339#6"/>
    <trip id="veh175" type="veh_passenger" depart="405.16" departLane="best" from="-1132292623" to="119108623#3"/>
    <trip id="veh176" type="veh_passenger" depart="407.48" departLane="best" from="133750882#4" to="141429104#2"/>
    <trip id="veh177" type="veh_passenger" depart="409.79" departLane="best" from="261125122#4" to="-134125557#2"/>
    <trip id="veh178" type="veh_passenger" depart="412.11" departLane="best" from="133750994#7" to="221889948#0"/>
    <trip id="veh179" type="veh_passenger" depart="414.42" departLane="best" departSpeed="max" from="134125080#0" to="323283031"/>
    <trip id="veh180" type="veh_passenger" depart="416.74" departLane="best" from="264696806#5" to="-134126940#0"/>
    <trip id="veh182" type="veh_passenger" depart="421.37" departLane="best" from="222073976#0" to="127123467"/>
    <trip id="veh183" type="veh_passenger" depart="423.68" departLane="best" from="277455125#7" to="263544946#7"/>
    <trip id="veh184" type="veh_passenger" depart="426.00" departLane="best" from="263544914#4" to="-222073964#0"/>
    <trip id="veh185" type="veh_passenger" depart="428.31" departLane="best" from="-134279019#4" to="-127123467"/>
    <trip id="veh186" type="veh_passenger" depart="430.63" departLane="best" from="-222073970#5" to="-134126289#1"/>
    <trip id="veh187" type="veh_passenger" depart="432.94" departLane="best" departSpeed="max" from="298736298#0" to="-133535940"/>
    <trip id="veh188" type="veh_passenger" depart="435.26" departLane="best" departSpeed="max" from="133535939" to="222156997"/>
    <trip id="veh189" type="veh_passenger" depart="437.57" departLane="best" departSpeed="max" from="-134278789#4" to="263544919#7"/>
    <trip id="veh191" type="veh_passenger" depart="442.20" departLane="best" from="263544911#1" to="-127123425#0"/>
    <trip id="veh192" type="veh_passenger" depart="444.52" departLane="best" from="141449651#1" to="264696806#14"/>
    <trip id="veh193" type="veh_passenger" depart="446.83" departLane="best" from="134238320#4" to="918067089#3"/>
    <trip id="veh194" type="veh_passenger" depart="449.15" departLane="best" from="134126940#1" to="-127124211"/>
    <trip id="veh195" type="veh_passenger" depart="451.47" departLane="best" departSpeed="max" from="-222079873#1" to="298736314#3"/>
    <trip id="veh196" type="veh_passenger" depart="453.78" departLane="best" from="-134020718#0" to="277455125#7"/>
    <trip id="veh197" type="veh_passenger" depart="456.10" departLane="best" from="263544914#2" to="918414112"/>
    <trip id="veh198" type="veh_passenger" depart="458.41" departLane="best" from="141449651#0" to="918067088#1"/>
    <trip id="veh200" type="veh_passenger" depart="463.04" departLane="best" from="263544935" to="134238320#6"/>
    <trip id="veh201" type="veh_passenger" depart="465.36" departLane="best" from="298734537#0" to="134281339#6"/>
    <trip id="veh202" type="veh_passenger" depart="467.67" departLane="best" from="298736371#5" to="263544946#5"/>
    <trip id="veh203" type="veh_passenger" depart="469.99" departLane="best" departSpeed="max" from="134125080#0" to="298847659"/>
    <trip id="veh204" type="veh_passenger" depart="472.30" departLane="best" departSpeed="max" from="-222079873#1" to="261125122#0"/>
    <trip id="veh205" type="veh_passenger" depart="474.62" departLane="best" from="263544950#2" to="134278789#3"/>
    <trip id="veh206" type="veh_passenger" depart="476.93" departLane="best" from="222073967#1" to="1149232501"/>
    <trip id="veh207" type="veh_passenger" depart="479.25" departLane="best" from="133803818#0" to="119108623#2"/>
    <trip id="veh208" type="veh_passenger" depart="481.56" departLane="best" departSpeed="max" from="-870847391#4" to="123919517#1"/>
    <trip id="veh209" type="veh_passenger" depart="483.88" departLane="best" from="134238322#0" to="134125552#0"/>
    <trip id="veh210" type="veh_passenger" depart="486.19" departLane="best" from="221889953" to="263544919#6"/>
    <trip id="veh211" type="veh_passenger" depart="488.51" departLane="best" from="263544919#3" to="132845550"/>
    <trip id="veh213" type="veh_passenger" depart="493.14" departLane="best" departSpeed="max" from="133535940" to="134281339#2"/>
    <trip id="veh214" type="veh_passenger" depart="495.45" departLane="best" departSpeed="max" from="133535941" to="656849616"/>
    <trip id="veh216" type="veh_passenger" depart="500.08" departLane="best" departSpeed="max" from="127124210" to="-127123425#0"/>
    <trip id="veh217" type="veh_passenger" depart="502.40" departLane="best" from="-127123468#0" to="263544950#1"/>
    <trip id="veh218" type="veh_passenger" depart="504.71" departLane="best" from="298736314#0" to="918067089#0"/>
    <trip id="veh219" type="veh_passenger" depart="507.03" departLane="best" departSpeed="max" from="133535941" to="263544946#7"/>
    <trip id="veh220" type="veh_passenger" depart="509.35" departLane="best" from="-134278789#1" to="221889954#2"/>
    <trip id="veh221" type="veh_passenger" depart="511.66" departLane="best" departSpeed="max" from="-134281339#6" to="221889953"/>
    <trip id="veh222" type="veh_passenger" depart="513.98" departLane="best" from="133750888" to="127123818#0"/>
    <trip id="veh223" type="veh_passenger" depart="516.29" departLane="best" departSpeed="max" from="127123427#0" to="263544917#2"/>
    <trip id="veh224" type="veh_passenger" depart="518.61" departLane="best" departSpeed="max" from="133384655#0" to="-134126570#0"/>
    <trip id="veh226" type="veh_passenger" depart="523.24" departLane="best" from="222073964#0" to="-127123470"/>
    <trip id="veh227" type="veh_passenger" depart="525.55" departLane="best" from="132845544" to="141429103#3"/>
    <trip id="veh228" type="veh_passenger" depart="527.87" departLane="best" from="-127124039#2" to="263544911#2"/>
    <trip id="veh231" type="veh_passenger" depart="534.81" departLane="best" from="263544945#2" to="298734588#3"/>
    <trip id="veh232" type="veh_passenger" depart="537.13" departLane="best" from="298734552#0" to="133750881#7"/>
    <trip id="veh233" type="veh_passenger" depart="539.44" departLane="best" from="-127123468#1" to="134279024"/>
    <trip id="veh234" type="veh_passenger" depart="541.76" departLane="best" from="97332407" to="127124043"/>
    <trip id="veh235" type="veh_passenger" depart="544.07" departLane="best" from="261125120#0" to="263544950#2"/>
    <trip id="veh236" type="veh_passenger" depart="546.39" departLane="best" departSpeed="max" from="917977709#0" to="134279019#3"/>
    <trip id="veh237" type="veh_passenger" depart="548.70" departLane="best" from="127123470" to="134126283"/>
    <trip id="veh238" type="veh_passenger" depart="551.02" departLane="best" from="-134125547" to="263544917#0"/>
    <trip id="veh239" type="veh_passenger" depart="553.33" departLane="best" from="141429103#1" to="-221889951#1"/>
    <trip id="veh240" type="veh_passenger" depart="555.65" departLane="best" from="263544918#1" to="264696806#12"/>
    <trip id="veh241" type="veh_passenger" depart="557.96" departLane="best" from="-134238202#7" to="222073962#1"/>
    <trip id="veh243" type="veh_passenger" depart="562.60" departLane="best" from="119109418#3" to="263544917#2"/>
    <trip id="veh244" type="veh_passenger" depart="564.91" departLane="best" departSpeed="max" from="917977709#0" to="-133750994#5"/>
    <trip id="veh245" type="veh_passenger" depart="567.23" departLane="best" from="263544935" to="-133535941"/>
    <trip id="veh246" type="veh_passenger" depart="569.54" departLane="best" departSpeed="max" from="263544918#0" to="222079873#1"/>
    <trip id="veh248" type="veh_passenger" depart="574.17" departLane="best" departSpeed="max" from="298736298#0" to="-221889951#1"/>
    <trip id="veh249" type="veh_passenger" depart="576.49" departLane="best" from="133750882#1" to="133384655#1"/>
    <trip id="veh250" type="veh_passenger" depart="578.80" departLane="best" from="134126294#0" to="127123818#1"/>
    <trip id="veh251" type="veh_passenger" depart="581.12" departLane="best" departSpeed="max" from="298736298#0" to="298734538#2"/>
    <trip id="veh253" type="veh_passenger" depart="585.75" departLane="best" from="-222073975#0" to="298734588#3"/>
    <trip id="veh255" type="veh_passenger" depart="590.38" departLane="best" from="263544943#11" to="918067090#1"/>
    <trip id="veh256" type="veh_passenger" depart="592.69" departLane="best" from="-870847391#2" to="298734534#0"/>
    <trip id="veh257" type="veh_passenger" depart="595.01" departLane="best" from="134238321#5" to="134126570#1"/>
    <trip id="veh258" type="veh_passenger" depart="597.32" departLane="best" from="133750888" to="263544944#2"/>
    <trip id="veh259" type="veh_passenger" depart="599.64" departLane="best" from="-781997032" to="298736315#3"/>
    <trip id="veh260" type="veh_passenger" depart="601.95" departLane="best" from="298734537#0" to="133750882#6"/>
    <trip id="veh262" type="veh_passenger" depart="606.58" departLane="best" from="134023093#7" to="-222073963#3"/>
    <trip id="veh263" type="veh_passenger" depart="608.90" departLane="best" departSpeed="max" from="127124210" to="127123817"/>
    <trip id="veh264" type="veh_passenger" depart="611.21" departLane="best" departSpeed="max" from="298736298#0" to="134238320#0"/>
    <trip id="veh266" type="veh_passenger" depart="615.84" departLane="best" departSpeed="max" from="127123428#0" to="298736371#2"/>
    <trip id="veh267" type="veh_passenger" depart="618.16" departLane="best" from="263544918#3" to="1149232501"/>
    <trip id="veh268" type="veh_passenger" depart="620.48" departLane="best" from="127123423#3" to="918067088#0"/>
    <trip id="veh269" type="veh_passenger" depart="622.79" departLane="best" from="-134125554#0" to="263544950#4"/>
    <trip id="veh270" type="veh_passenger" depart="625.11" departLane="best" departSpeed="max" from="263544918#0" to="263544911#3"/>
    <trip id="veh271" type="veh_passenger" depart="627.42" departLane="best" from="134125556#0" to="277455125#2"/>
    <trip id="veh272" type="veh_passenger" depart="629.74" departLane="best" from="134023093#6" to="222073962#2"/>
    <trip id="veh273" type="veh_passenger" depart="632.05" departLane="best" departSpeed="max" from="263544918#0" to="119216884#15"/>
    <trip id="veh274" type="veh_passenger" depart="634.37" departLane="best" from="141429103#6" to="-134126286#0"/>
    <trip id="veh276" type="veh_passenger" depart="639.00" departLane="best" from="263544944#1" to="127123423#6"/>
    <trip id="veh277" type="veh_passenger" depart="641.31" departLane="best" from="263544919#0" to="1149232280"/>
    <trip id="veh278" type="veh_passenger" depart="643.63" departLane="best" from="-222156997" to="-134124850#0"/>