<?xml version="1.0" encoding="UTF-8"?>

<!-- generated on 2024-06-06 23:21:39 by Eclipse SUMO netgenerate Version 1.19.0
<configuration xmlns:xsi="http://www.w3.org/2001/XMLSchema-instance" xsi:noNamespaceSchemaLocation="http://sumo.dlr.de/xsd/netgenerateConfiguration.xsd">

    <grid_network>
        <grid value="true"/>
        <grid.number value="5"/>
        <grid.length value="300"/>
    </grid_network>

    <building_defaults>
        <default.lanenumber value="3"/>
        <default-junction-type value="traffic_light"/>
    </building_defaults>

</configuration>
-->

<net version="1.16" junctionCornerDetail="5" limitTurnSpeed="5.50" xmlns:xsi="http://www.w3.org/2001/XMLSchema-instance" xsi:noNamespaceSchemaLocation="http://sumo.dlr.de/xsd/net_file.xsd">

    <location netOffset="0.00,0.00" convBoundary="0.00,0.00,1200.00,1200.00" origBoundary="0.00,0.00,1200.00,1200.00" projParameter="!"/>

    <edge id=":A0_0" function="internal">
        <lane id=":A0_0_0" index="0" speed="11.12" length="28.38" shape="-8.00,9.60 -6.90,1.90 -3.60,-3.60 1.90,-6.90 9.60,-8.00"/>
        <lane id=":A0_0_1" index="1" speed="10.10" length="23.22" shape="-4.80,9.60 -3.90,3.30 -1.20,-1.20 3.30,-3.90 9.60,-4.80"/>
        <lane id=":A0_0_2" index="2" speed="8.96" length="18.06" shape="-1.60,9.60 -0.90,4.70 1.20,1.20 4.70,-0.90 9.60,-1.60"/>
    </edge>
    <edge id=":A0_3" function="internal">
        <lane id=":A0_3_0" index="0" speed="3.90" length="2.58" shape="9.60,8.00 8.90,8.10 8.40,8.40 8.10,8.90 8.00,9.60"/>
        <lane id=":A0_3_1" index="1" speed="6.08" length="7.74" shape="9.60,4.80 7.50,5.10 6.00,6.00 5.10,7.50 4.80,9.60"/>
        <lane id=":A0_3_2" index="2" speed="7.66" length="12.90" shape="9.60,1.60 6.10,2.10 3.60,3.60 2.10,6.10 1.60,9.60"/>
    </edge>
    <edge id=":A1_0" function="internal">
        <lane id=":A1_0_0" index="0" speed="13.89" length="27.20" shape="-8.00,313.60 -8.00,286.40"/>
        <lane id=":A1_0_1" index="1" speed="13.89" length="27.20" shape="-4.80,313.60 -4.80,286.40"/>
        <lane id=":A1_0_2" index="2" speed="13.89" length="27.20" shape="-1.60,313.60 -1.60,286.40"/>
    </edge>
    <edge id=":A1_3" function="internal">
        <lane id=":A1_3_0" index="0" speed="10.88" length="6.03" shape="-1.60,313.60 -0.89,307.62"/>
        <lane id=":A1_3_1" index="1" speed="10.36" length="5.01" shape="-1.60,313.60 -0.89,308.64"/>
    </edge>
    <edge id=":A1_5" function="internal">
        <lane id=":A1_5_0" index="0" speed="3.65" length="1.44" shape="-1.60,313.60 -0.80,312.40"/>
    </edge>
    <edge id=":A1_16" function="internal">
        <lane id=":A1_16_0" index="0" speed="10.88" length="21.12" shape="-0.89,307.62 -0.65,305.55 2.20,299.80 6.95,296.35 13.60,295.20"/>
    </edge>
    <edge id=":A1_17" function="internal">
        <lane id=":A1_17_0" index="0" speed="10.36" length="19.50" shape="-0.89,308.64 -0.65,306.95 2.20,302.20 6.95,299.35 13.60,298.40"/>
    </edge>
    <edge id=":A1_18" function="internal">
        <lane id=":A1_18_0" index="0" speed="3.65" length="3.23" shape="-0.80,312.40 0.00,312.00 0.80,312.40 1.60,313.60"/>
    </edge>
    <edge id=":A1_6" function="internal">
        <lane id=":A1_6_0" index="0" speed="6.51" length="9.03" shape="13.60,308.00 11.15,308.35 9.40,309.40 8.35,311.15 8.00,313.60"/>
        <lane id=":A1_6_1" index="1" speed="8.00" length="14.19" shape="13.60,304.80 9.75,305.35 7.00,307.00 5.35,309.75 4.80,313.60"/>
    </edge>
    <edge id=":A1_8" function="internal">
        <lane id=":A1_8_0" index="0" speed="10.88" length="27.14" shape="13.60,301.60 5.55,300.65 -0.20,297.80 -3.65,293.05 -4.80,286.40"/>
        <lane id=":A1_8_1" index="1" speed="10.36" length="24.51" shape="13.60,301.60 6.95,300.65 2.20,297.80 -0.65,293.05 -1.60,286.40"/>
    </edge>
    <edge id=":A1_10" function="internal">
        <lane id=":A1_10_0" index="0" speed="3.65" length="2.34" shape="13.60,301.60 12.40,300.80 12.00,300.00"/>
    </edge>
    <edge id=":A1_19" function="internal">
        <lane id=":A1_19_0" index="0" speed="3.65" length="2.34" shape="12.00,300.00 12.40,299.20 13.60,298.40"/>
    </edge>
    <edge id=":A1_11" function="internal">
        <lane id=":A1_11_0" index="0" speed="6.51" length="9.03" shape="8.00,286.40 8.35,288.85 9.40,290.60 11.15,291.65 13.60,292.00"/>
    </edge>
    <edge id=":A1_12" function="internal">
        <lane id=":A1_12_0" index="0" speed="13.89" length="27.20" shape="8.00,286.40 8.00,313.60"/>
        <lane id=":A1_12_1" index="1" speed="13.89" length="27.20" shape="4.80,286.40 4.80,313.60"/>
        <lane id=":A1_12_2" index="2" speed="13.89" length="27.20" shape="1.60,286.40 1.60,313.60"/>
    </edge>
    <edge id=":A1_15" function="internal">
        <lane id=":A1_15_0" index="0" speed="3.65" length="1.44" shape="1.60,286.40 0.80,287.60"/>
    </edge>
    <edge id=":A1_20" function="internal">
        <lane id=":A1_20_0" index="0" speed="3.65" length="3.23" shape="0.80,287.60 0.00,288.00 -0.80,287.60 -1.60,286.40"/>
    </edge>
    <edge id=":A2_0" function="internal">
        <lane id=":A2_0_0" index="0" speed="13.89" length="27.20" shape="-8.00,613.60 -8.00,586.40"/>
        <lane id=":A2_0_1" index="1" speed="13.89" length="27.20" shape="-4.80,613.60 -4.80,586.40"/>
        <lane id=":A2_0_2" index="2" speed="13.89" length="27.20" shape="-1.60,613.60 -1.60,586.40"/>
    </edge>
    <edge id=":A2_3" function="internal">
        <lane id=":A2_3_0" index="0" speed="10.88" length="6.03" shape="-1.60,613.60 -0.89,607.62"/>
        <lane id=":A2_3_1" index="1" speed="10.36" length="5.01" shape="-1.60,613.60 -0.89,608.64"/>
    </edge>
    <edge id=":A2_5" function="internal">
        <lane id=":A2_5_0" index="0" speed="3.65" length="1.44" shape="-1.60,613.60 -0.80,612.40"/>
    </edge>
    <edge id=":A2_16" function="internal">
        <lane id=":A2_16_0" index="0" speed="10.88" length="21.12" shape="-0.89,607.62 -0.65,605.55 2.20,599.80 6.95,596.35 13.60,595.20"/>
    </edge>
    <edge id=":A2_17" function="internal">
        <lane id=":A2_17_0" index="0" speed="10.36" length="19.50" shape="-0.89,608.64 -0.65,606.95 2.20,602.20 6.95,599.35 13.60,598.40"/>
    </edge>
    <edge id=":A2_18" function="internal">
        <lane id=":A2_18_0" index="0" speed="3.65" length="3.23" shape="-0.80,612.40 0.00,612.00 0.80,612.40 1.60,613.60"/>
    </edge>
    <edge id=":A2_6" function="internal">
        <lane id=":A2_6_0" index="0" speed="6.51" length="9.03" shape="13.60,608.00 11.15,608.35 9.40,609.40 8.35,611.15 8.00,613.60"/>
        <lane id=":A2_6_1" index="1" speed="8.00" length="14.19" shape="13.60,604.80 9.75,605.35 7.00,607.00 5.35,609.75 4.80,613.60"/>
    </edge>
    <edge id=":A2_8" function="internal">
        <lane id=":A2_8_0" index="0" speed="10.88" length="27.14" shape="13.60,601.60 5.55,600.65 -0.20,597.80 -3.65,593.05 -4.80,586.40"/>
        <lane id=":A2_8_1" index="1" speed="10.36" length="24.51" shape="13.60,601.60 6.95,600.65 2.20,597.80 -0.65,593.05 -1.60,586.40"/>
    </edge>
    <edge id=":A2_10" function="internal">
        <lane id=":A2_10_0" index="0" speed="3.65" length="2.34" shape="13.60,601.60 12.40,600.80 12.00,600.00"/>
    </edge>
    <edge id=":A2_19" function="internal">
        <lane id=":A2_19_0" index="0" speed="3.65" length="2.34" shape="12.00,600.00 12.40,599.20 13.60,598.40"/>
    </edge>
    <edge id=":A2_11" function="internal">
        <lane id=":A2_11_0" index="0" speed="6.51" length="9.03" shape="8.00,586.40 8.35,588.85 9.40,590.60 11.15,591.65 13.60,592.00"/>
    </edge>
    <edge id=":A2_12" function="internal">
        <lane id=":A2_12_0" index="0" speed="13.89" length="27.20" shape="8.00,586.40 8.00,613.60"/>
        <lane id=":A2_12_1" index="1" speed="13.89" length="27.20" shape="4.80,586.40 4.80,613.60"/>
        <lane id=":A2_12_2" index="2" speed="13.89" length="27.20" shape="1.60,586.40 1.60,613.60"/>
    </edge>
    <edge id=":A2_15" function="internal">
        <lane id=":A2_15_0" index="0" speed="3.65" length="1.44" shape="1.60,586.40 0.80,587.60"/>
    </edge>
    <edge id=":A2_20" function="internal">
        <lane id=":A2_20_0" index="0" speed="3.65" length="3.23" shape="0.80,587.60 0.00,588.00 -0.80,587.60 -1.60,586.40"/>
    </edge>
    <edge id=":A3_0" function="internal">
        <lane id=":A3_0_0" index="0" speed="13.89" length="27.20" shape="-8.00,913.60 -8.00,886.40"/>
        <lane id=":A3_0_1" index="1" speed="13.89" length="27.20" shape="-4.80,913.60 -4.80,886.40"/>
        <lane id=":A3_0_2" index="2" speed="13.89" length="27.20" shape="-1.60,913.60 -1.60,886.40"/>
    </edge>
    <edge id=":A3_3" function="internal">
        <lane id=":A3_3_0" index="0" speed="10.88" length="6.03" shape="-1.60,913.60 -0.89,907.62"/>
        <lane id=":A3_3_1" index="1" speed="10.36" length="5.01" shape="-1.60,913.60 -0.89,908.64"/>
    </edge>
    <edge id=":A3_5" function="internal">
        <lane id=":A3_5_0" index="0" speed="3.65" length="1.44" shape="-1.60,913.60 -0.80,912.40"/>
    </edge>
    <edge id=":A3_16" function="internal">
        <lane id=":A3_16_0" index="0" speed="10.88" length="21.12" shape="-0.89,907.62 -0.65,905.55 2.20,899.80 6.95,896.35 13.60,895.20"/>
    </edge>
    <edge id=":A3_17" function="internal">
        <lane id=":A3_17_0" index="0" speed="10.36" length="19.50" shape="-0.89,908.64 -0.65,906.95 2.20,902.20 6.95,899.35 13.60,898.40"/>
    </edge>
    <edge id=":A3_18" function="internal">
        <lane id=":A3_18_0" index="0" speed="3.65" length="3.23" shape="-0.80,912.40 0.00,912.00 0.80,912.40 1.60,913.60"/>
    </edge>
    <edge id=":A3_6" function="internal">
        <lane id=":A3_6_0" index="0" speed="6.51" length="9.03" shape="13.60,908.00 11.15,908.35 9.40,909.40 8.35,911.15 8.00,913.60"/>
        <lane id=":A3_6_1" index="1" speed="8.00" length="14.19" shape="13.60,904.80 9.75,905.35 7.00,907.00 5.35,909.75 4.80,913.60"/>
    </edge>
    <edge id=":A3_8" function="internal">
        <lane id=":A3_8_0" index="0" speed="10.88" length="27.14" shape="13.60,901.60 5.55,900.65 -0.20,897.80 -3.65,893.05 -4.80,886.40"/>
        <lane id=":A3_8_1" index="1" speed="10.36" length="24.51" shape="13.60,901.60 6.95,900.65 2.20,897.80 -0.65,893.05 -1.60,886.40"/>
    </edge>
    <edge id=":A3_10" function="internal">
        <lane id=":A3_10_0" index="0" speed="3.65" length="2.34" shape="13.60,901.60 12.40,900.80 12.00,900.00"/>
    </edge>
    <edge id=":A3_19" function="internal">
        <lane id=":A3_19_0" index="0" speed="3.65" length="2.34" shape="12.00,900.00 12.40,899.20 13.60,898.40"/>
    </edge>
    <edge id=":A3_11" function="internal">
        <lane id=":A3_11_0" index="0" speed="6.51" length="9.03" shape="8.00,886.40 8.35,888.85 9.40,890.60 11.15,891.65 13.60,892.00"/>
    </edge>
    <edge id=":A3_12" function="internal">
        <lane id=":A3_12_0" index="0" speed="13.89" length="27.20" shape="8.00,886.40 8.00,913.60"/>
        <lane id=":A3_12_1" index="1" speed="13.89" length="27.20" shape="4.80,886.40 4.80,913.60"/>
        <lane id=":A3_12_2" index="2" speed="13.89" length="27.20" shape="1.60,886.40 1.60,913.60"/>
    </edge>
    <edge id=":A3_15" function="internal">
        <lane id=":A3_15_0" index="0" speed="3.65" length="1.44" shape="1.60,886.40 0.80,887.60"/>
    </edge>
    <edge id=":A3_20" function="internal">
        <lane id=":A3_20_0" index="0" speed="3.65" length="3.23" shape="0.80,887.60 0.00,888.00 -0.80,887.60 -1.60,886.40"/>
    </edge>
    <edge id=":A4_0" function="internal">
        <lane id=":A4_0_0" index="0" speed="11.12" length="28.38" shape="9.60,1208.00 1.90,1206.90 -3.60,1203.60 -6.90,1198.10 -8.00,1190.40"/>
        <lane id=":A4_0_1" index="1" speed="10.10" length="23.22" shape="9.60,1204.80 3.30,1203.90 -1.20,1201.20 -3.90,1196.70 -4.80,1190.40"/>
        <lane id=":A4_0_2" index="2" speed="8.96" length="18.06" shape="9.60,1201.60 4.70,1200.90 1.20,1198.80 -0.90,1195.30 -1.60,1190.40"/>
    </edge>
    <edge id=":A4_3" function="internal">
        <lane id=":A4_3_0" index="0" speed="3.90" length="2.58" shape="8.00,1190.40 8.10,1191.10 8.40,1191.60 8.90,1191.90 9.60,1192.00"/>
        <lane id=":A4_3_1" index="1" speed="6.08" length="7.74" shape="4.80,1190.40 5.10,1192.50 6.00,1194.00 7.50,1194.90 9.60,1195.20"/>
        <lane id=":A4_3_2" index="2" speed="7.66" length="12.90" shape="1.60,1190.40 2.10,1193.90 3.60,1196.40 6.10,1197.90 9.60,1198.40"/>
    </edge>
    <edge id=":B0_0" function="internal">
        <lane id=":B0_0_0" index="0" speed="6.51" length="9.03" shape="292.00,13.60 291.65,11.15 290.60,9.40 288.85,8.35 286.40,8.00"/>
        <lane id=":B0_0_1" index="1" speed="8.00" length="14.19" shape="295.20,13.60 294.65,9.75 293.00,7.00 290.25,5.35 286.40,4.80"/>
    </edge>
    <edge id=":B0_2" function="internal">
        <lane id=":B0_2_0" index="0" speed="10.88" length="27.14" shape="298.40,13.60 299.35,5.55 302.20,-0.20 306.95,-3.65 313.60,-4.80"/>
        <lane id=":B0_2_1" index="1" speed="10.36" length="24.51" shape="298.40,13.60 299.35,6.95 302.20,2.20 306.95,-0.65 313.60,-1.60"/>
    </edge>
    <edge id=":B0_4" function="internal">
        <lane id=":B0_4_0" index="0" speed="3.65" length="2.34" shape="298.40,13.60 299.20,12.40 300.00,12.00"/>
    </edge>
    <edge id=":B0_16" function="internal">
        <lane id=":B0_16_0" index="0" speed="3.65" length="2.34" shape="300.00,12.00 300.80,12.40 301.60,13.60"/>
    </edge>
    <edge id=":B0_5" function="internal">
        <lane id=":B0_5_0" index="0" speed="6.51" length="9.03" shape="313.60,8.00 311.15,8.35 309.40,9.40 308.35,11.15 308.00,13.60"/>
    </edge>
    <edge id=":B0_6" function="internal">
        <lane id=":B0_6_0" index="0" speed="13.89" length="27.20" shape="313.60,8.00 286.40,8.00"/>
        <lane id=":B0_6_1" index="1" speed="13.89" length="27.20" shape="313.60,4.80 286.40,4.80"/>
        <lane id=":B0_6_2" index="2" speed="13.89" length="27.20" shape="313.60,1.60 286.40,1.60"/>
    </edge>
    <edge id=":B0_9" function="internal">
        <lane id=":B0_9_0" index="0" speed="3.65" length="1.44" shape="313.60,1.60 312.40,0.80"/>
    </edge>
    <edge id=":B0_17" function="internal">
        <lane id=":B0_17_0" index="0" speed="3.65" length="3.23" shape="312.40,0.80 312.00,0.00 312.40,-0.80 313.60,-1.60"/>
    </edge>
    <edge id=":B0_10" function="internal">
        <lane id=":B0_10_0" index="0" speed="13.89" length="27.20" shape="286.40,-8.00 313.60,-8.00"/>
        <lane id=":B0_10_1" index="1" speed="13.89" length="27.20" shape="286.40,-4.80 313.60,-4.80"/>
        <lane id=":B0_10_2" index="2" speed="13.89" length="27.20" shape="286.40,-1.60 313.60,-1.60"/>
    </edge>
    <edge id=":B0_13" function="internal">
        <lane id=":B0_13_0" index="0" speed="10.88" length="6.03" shape="286.40,-1.60 292.38,-0.89"/>
        <lane id=":B0_13_1" index="1" speed="10.36" length="5.01" shape="286.40,-1.60 291.36,-0.89"/>
    </edge>
    <edge id=":B0_15" function="internal">
        <lane id=":B0_15_0" index="0" speed="3.65" length="1.44" shape="286.40,-1.60 287.60,-0.80"/>
    </edge>
    <edge id=":B0_18" function="internal">
        <lane id=":B0_18_0" index="0" speed="10.88" length="21.12" shape="292.38,-0.89 294.45,-0.65 300.20,2.20 303.65,6.95 304.80,13.60"/>
    </edge>
    <edge id=":B0_19" function="internal">
        <lane id=":B0_19_0" index="0" speed="10.36" length="19.50" shape="291.36,-0.89 293.05,-0.65 297.80,2.20 300.65,6.95 301.60,13.60"/>
    </edge>
    <edge id=":B0_20" function="internal">
        <lane id=":B0_20_0" index="0" speed="3.65" length="3.23" shape="287.60,-0.80 288.00,0.00 287.60,0.80 286.40,1.60"/>
    </edge>
    <edge id=":B1_0" function="internal">
        <lane id=":B1_0_0" index="0" speed="6.51" length="9.03" shape="292.00,313.60 291.65,311.15 290.60,309.40 288.85,308.35 286.40,308.00"/>
    </edge>
    <edge id=":B1_1" function="internal">
        <lane id=":B1_1_0" index="0" speed="13.89" length="27.20" shape="292.00,313.60 292.00,286.40"/>
        <lane id=":B1_1_1" index="1" speed="13.89" length="27.20" shape="295.20,313.60 295.20,286.40"/>
        <lane id=":B1_1_2" index="2" speed="13.89" length="27.20" shape="298.40,313.60 298.40,286.40"/>
    </edge>
    <edge id=":B1_4" function="internal">
        <lane id=":B1_4_0" index="0" speed="10.36" length="5.01" shape="298.40,313.60 299.11,308.64"/>
    </edge>
    <edge id=":B1_5" function="internal">
        <lane id=":B1_5_0" index="0" speed="3.65" length="1.44" shape="298.40,313.60 299.20,312.40"/>
    </edge>
    <edge id=":B1_24" function="internal">
        <lane id=":B1_24_0" index="0" speed="10.36" length="19.50" shape="299.11,308.64 299.35,306.95 302.20,302.20 306.95,299.35 313.60,298.40"/>
    </edge>
    <edge id=":B1_25" function="internal">
        <lane id=":B1_25_0" index="0" speed="3.65" length="3.23" shape="299.20,312.40 300.00,312.00 300.80,312.40 301.60,313.60"/>
    </edge>
    <edge id=":B1_6" function="internal">
        <lane id=":B1_6_0" index="0" speed="6.51" length="9.03" shape="313.60,308.00 311.15,308.35 309.40,309.40 308.35,311.15 308.00,313.60"/>
    </edge>
    <edge id=":B1_7" function="internal">
        <lane id=":B1_7_0" index="0" speed="13.89" length="27.20" shape="313.60,308.00 286.40,308.00"/>
        <lane id=":B1_7_1" index="1" speed="13.89" length="27.20" shape="313.60,304.80 286.40,304.80"/>
        <lane id=":B1_7_2" index="2" speed="13.89" length="27.20" shape="313.60,301.60 286.40,301.60"/>
    </edge>
    <edge id=":B1_10" function="internal">
        <lane id=":B1_10_0" index="0" speed="10.36" length="5.01" shape="313.60,301.60 308.64,300.89"/>
    </edge>
    <edge id=":B1_11" function="internal">
        <lane id=":B1_11_0" index="0" speed="3.65" length="1.44" shape="313.60,301.60 312.40,300.80"/>
    </edge>
    <edge id=":B1_26" function="internal">
        <lane id=":B1_26_0" index="0" speed="10.36" length="19.50" shape="308.64,300.89 306.95,300.65 302.20,297.80 299.35,293.05 298.40,286.40"/>
    </edge>
    <edge id=":B1_27" function="internal">
        <lane id=":B1_27_0" index="0" speed="3.65" length="3.23" shape="312.40,300.80 312.00,300.00 312.40,299.20 313.60,298.40"/>
    </edge>
    <edge id=":B1_12" function="internal">
        <lane id=":B1_12_0" index="0" speed="6.51" length="9.03" shape="308.00,286.40 308.35,288.85 309.40,290.60 311.15,291.65 313.60,292.00"/>
    </edge>
    <edge id=":B1_13" function="internal">
        <lane id=":B1_13_0" index="0" speed="13.89" length="27.20" shape="308.00,286.40 308.00,313.60"/>
        <lane id=":B1_13_1" index="1" speed="13.89" length="27.20" shape="304.80,286.40 304.80,313.60"/>
        <lane id=":B1_13_2" index="2" speed="13.89" length="27.20" shape="301.60,286.40 301.60,313.60"/>
    </edge>
    <edge id=":B1_16" function="internal">
        <lane id=":B1_16_0" index="0" speed="10.36" length="5.01" shape="301.60,286.40 300.89,291.36"/>
    </edge>
    <edge id=":B1_17" function="internal">
        <lane id=":B1_17_0" index="0" speed="3.65" length="1.44" shape="301.60,286.40 300.80,287.60"/>
    </edge>
    <edge id=":B1_28" function="internal">
        <lane id=":B1_28_0" index="0" speed="10.36" length="19.50" shape="300.89,291.36 300.65,293.05 297.80,297.80 293.05,300.65 286.40,301.60"/>
    </edge>
    <edge id=":B1_29" function="internal">
        <lane id=":B1_29_0" index="0" speed="3.65" length="3.23" shape="300.80,287.60 300.00,288.00 299.20,287.60 298.40,286.40"/>
    </edge>
    <edge id=":B1_18" function="internal">
        <lane id=":B1_18_0" index="0" speed="6.51" length="9.03" shape="286.40,292.00 288.85,291.65 290.60,290.60 291.65,288.85 292.00,286.40"/>
    </edge>
    <edge id=":B1_19" function="internal">
        <lane id=":B1_19_0" index="0" speed="13.89" length="27.20" shape="286.40,292.00 313.60,292.00"/>
        <lane id=":B1_19_1" index="1" speed="13.89" length="27.20" shape="286.40,295.20 313.60,295.20"/>
        <lane id=":B1_19_2" index="2" speed="13.89" length="27.20" shape="286.40,298.40 313.60,298.40"/>
    </edge>
    <edge id=":B1_22" function="internal">
        <lane id=":B1_22_0" index="0" speed="10.36" length="5.01" shape="286.40,298.40 291.36,299.11"/>
    </edge>
    <edge id=":B1_23" function="internal">
        <lane id=":B1_23_0" index="0" speed="3.65" length="1.44" shape="286.40,298.40 287.60,299.20"/>
    </edge>
    <edge id=":B1_30" function="internal">
        <lane id=":B1_30_0" index="0" speed="10.36" length="19.50" shape="291.36,299.11 293.05,299.35 297.80,302.20 300.65,306.95 301.60,313.60"/>
    </edge>
    <edge id=":B1_31" function="internal">
        <lane id=":B1_31_0" index="0" speed="3.65" length="3.23" shape="287.60,299.20 288.00,300.00 287.60,300.80 286.40,301.60"/>
    </edge>
    <edge id=":B2_0" function="internal">
        <lane id=":B2_0_0" index="0" speed="6.51" length="9.03" shape="292.00,613.60 291.65,611.15 290.60,609.40 288.85,608.35 286.40,608.00"/>
    </edge>
    <edge id=":B2_1" function="internal">
        <lane id=":B2_1_0" index="0" speed="13.89" length="27.20" shape="292.00,613.60 292.00,586.40"/>
        <lane id=":B2_1_1" index="1" speed="13.89" length="27.20" shape="295.20,613.60 295.20,586.40"/>
        <lane id=":B2_1_2" index="2" speed="13.89" length="27.20" shape="298.40,613.60 298.40,586.40"/>
    </edge>
    <edge id=":B2_4" function="internal">
        <lane id=":B2_4_0" index="0" speed="10.36" length="5.01" shape="298.40,613.60 299.11,608.64"/>
    </edge>
    <edge id=":B2_5" function="internal">
        <lane id=":B2_5_0" index="0" speed="3.65" length="1.44" shape="298.40,613.60 299.20,612.40"/>
    </edge>
    <edge id=":B2_24" function="internal">
        <lane id=":B2_24_0" index="0" speed="10.36" length="19.50" shape="299.11,608.64 299.35,606.95 302.20,602.20 306.95,599.35 313.60,598.40"/>
    </edge>
    <edge id=":B2_25" function="internal">
        <lane id=":B2_25_0" index="0" speed="3.65" length="3.23" shape="299.20,612.40 300.00,612.00 300.80,612.40 301.60,613.60"/>
    </edge>
    <edge id=":B2_6" function="internal">
        <lane id=":B2_6_0" index="0" speed="6.51" length="9.03" shape="313.60,608.00 311.15,608.35 309.40,609.40 308.35,611.15 308.00,613.60"/>
    </edge>
    <edge id=":B2_7" function="internal">
        <lane id=":B2_7_0" index="0" speed="13.89" length="27.20" shape="313.60,608.00 286.40,608.00"/>
        <lane id=":B2_7_1" index="1" speed="13.89" length="27.20" shape="313.60,604.80 286.40,604.80"/>
        <lane id=":B2_7_2" index="2" speed="13.89" length="27.20" shape="313.60,601.60 286.40,601.60"/>
    </edge>
    <edge id=":B2_10" function="internal">
        <lane id=":B2_10_0" index="0" speed="10.36" length="5.01" shape="313.60,601.60 308.64,600.89"/>
    </edge>
    <edge id=":B2_11" function="internal">
        <lane id=":B2_11_0" index="0" speed="3.65" length="1.44" shape="313.60,601.60 312.40,600.80"/>
    </edge>
    <edge id=":B2_26" function="internal">
        <lane id=":B2_26_0" index="0" speed="10.36" length="19.50" shape="308.64,600.89 306.95,600.65 302.20,597.80 299.35,593.05 298.40,586.40"/>
    </edge>
    <edge id=":B2_27" function="internal">
        <lane id=":B2_27_0" index="0" speed="3.65" length="3.23" shape="312.40,600.80 312.00,600.00 312.40,599.20 313.60,598.40"/>
    </edge>
    <edge id=":B2_12" function="internal">
        <lane id=":B2_12_0" index="0" speed="6.51" length="9.03" shape="308.00,586.40 308.35,588.85 309.40,590.60 311.15,591.65 313.60,592.00"/>
    </edge>
    <edge id=":B2_13" function="internal">
        <lane id=":B2_13_0" index="0" speed="13.89" length="27.20" shape="308.00,586.40 308.00,613.60"/>
        <lane id=":B2_13_1" index="1" speed="13.89" length="27.20" shape="304.80,586.40 304.80,613.60"/>
        <lane id=":B2_13_2" index="2" speed="13.89" length="27.20" shape="301.60,586.40 301.60,613.60"/>
    </edge>
    <edge id=":B2_16" function="internal">
        <lane id=":B2_16_0" index="0" speed="10.36" length="5.01" shape="301.60,586.40 300.89,591.36"/>
    </edge>
    <edge id=":B2_17" function="internal">
        <lane id=":B2_17_0" index="0" speed="3.65" length="1.44" shape="301.60,586.40 300.80,587.60"/>
    </edge>
    <edge id=":B2_28" function="internal">
        <lane id=":B2_28_0" index="0" speed="10.36" length="19.50" shape="300.89,591.36 300.65,593.05 297.80,597.80 293.05,600.65 286.40,601.60"/>
    </edge>
    <edge id=":B2_29" function="internal">
        <lane id=":B2_29_0" index="0" speed="3.65" length="3.23" shape="300.80,587.60 300.00,588.00 299.20,587.60 298.40,586.40"/>
    </edge>
    <edge id=":B2_18" function="internal">
        <lane id=":B2_18_0" index="0" speed="6.51" length="9.03" shape="286.40,592.00 288.85,591.65 290.60,590.60 291.65,588.85 292.00,586.40"/>
    </edge>
    <edge id=":B2_19" function="internal">
        <lane id=":B2_19_0" index="0" speed="13.89" length="27.20" shape="286.40,592.00 313.60,592.00"/>
        <lane id=":B2_19_1" index="1" speed="13.89" length="27.20" shape="286.40,595.20 313.60,595.20"/>
        <lane id=":B2_19_2" index="2" speed="13.89" length="27.20" shape="286.40,598.40 313.60,598.40"/>
    </edge>
    <edge id=":B2_22" function="internal">
        <lane id=":B2_22_0" index="0" speed="10.36" length="5.01" shape="286.40,598.40 291.36,599.11"/>
    </edge>
    <edge id=":B2_23" function="internal">
        <lane id=":B2_23_0" index="0" speed="3.65" length="1.44" shape="286.40,598.40 287.60,599.20"/>
    </edge>
    <edge id=":B2_30" function="internal">
        <lane id=":B2_30_0" index="0" speed="10.36" length="19.50" shape="291.36,599.11 293.05,599.35 297.80,602.20 300.65,606.95 301.60,613.60"/>
    </edge>
    <edge id=":B2_31" function="internal">
        <lane id=":B2_31_0" index="0" speed="3.65" length="3.23" shape="287.60,599.20 288.00,600.00 287.60,600.80 286.40,601.60"/>
    </edge>
    <edge id=":B3_0" function="internal">
        <lane id=":B3_0_0" index="0" speed="6.51" length="9.03" shape="292.00,913.60 291.65,911.15 290.60,909.40 288.85,908.35 286.40,908.00"/>
    </edge>
    <edge id=":B3_1" function="internal">
        <lane id=":B3_1_0" index="0" speed="13.89" length="27.20" shape="292.00,913.60 292.00,886.40"/>
        <lane id=":B3_1_1" index="1" speed="13.89" length="27.20" shape="295.20,913.60 295.20,886.40"/>
        <lane id=":B3_1_2" index="2" speed="13.89" length="27.20" shape="298.40,913.60 298.40,886.40"/>
    </edge>
    <edge id=":B3_4" function="internal">
        <lane id=":B3_4_0" index="0" speed="10.36" length="5.01" shape="298.40,913.60 299.11,908.64"/>
    </edge>
    <edge id=":B3_5" function="internal">
        <lane id=":B3_5_0" index="0" speed="3.65" length="1.44" shape="298.40,913.60 299.20,912.40"/>
    </edge>
    <edge id=":B3_24" function="internal">
        <lane id=":B3_24_0" index="0" speed="10.36" length="19.50" shape="299.11,908.64 299.35,906.95 302.20,902.20 306.95,899.35 313.60,898.40"/>
    </edge>
    <edge id=":B3_25" function="internal">
        <lane id=":B3_25_0" index="0" speed="3.65" length="3.23" shape="299.20,912.40 300.00,912.00 300.80,912.40 301.60,913.60"/>
    </edge>
    <edge id=":B3_6" function="internal">
        <lane id=":B3_6_0" index="0" speed="6.51" length="9.03" shape="313.60,908.00 311.15,908.35 309.40,909.40 308.35,911.15 308.00,913.60"/>
    </edge>
    <edge id=":B3_7" function="internal">
        <lane id=":B3_7_0" index="0" speed="13.89" length="27.20" shape="313.60,908.00 286.40,908.00"/>
        <lane id=":B3_7_1" index="1" speed="13.89" length="27.20" shape="313.60,904.80 286.40,904.80"/>
        <lane id=":B3_7_2" index="2" speed="13.89" length="27.20" shape="313.60,901.60 286.40,901.60"/>
    </edge>
    <edge id=":B3_10" function="internal">
        <lane id=":B3_10_0" index="0" speed="10.36" length="5.01" shape="313.60,901.60 308.64,900.89"/>
    </edge>
    <edge id=":B3_11" function="internal">
        <lane id=":B3_11_0" index="0" speed="3.65" length="1.44" shape="313.60,901.60 312.40,900.80"/>
    </edge>
    <edge id=":B3_26" function="internal">
        <lane id=":B3_26_0" index="0" speed="10.36" length="19.50" shape="308.64,900.89 306.95,900.65 302.20,897.80 299.35,893.05 298.40,886.40"/>
    </edge>
    <edge id=":B3_27" function="internal">
        <lane id=":B3_27_0" index="0" speed="3.65" length="3.23" shape="312.40,900.80 312.00,900.00 312.40,899.20 313.60,898.40"/>
    </edge>
    <edge id=":B3_12" function="internal">
        <lane id=":B3_12_0" index="0" speed="6.51" length="9.03" shape="308.00,886.40 308.35,888.85 309.40,890.60 311.15,891.65 313.60,892.00"/>
    </edge>
    <edge id=":B3_13" function="internal">
        <lane id=":B3_13_0" index="0" speed="13.89" length="27.20" shape="308.00,886.40 308.00,913.60"/>
        <lane id=":B3_13_1" index="1" speed="13.89" length="27.20" shape="304.80,886.40 304.80,913.60"/>
        <lane id=":B3_13_2" index="2" speed="13.89" length="27.20" shape="301.60,886.40 301.60,913.60"/>
    </edge>
    <edge id=":B3_16" function="internal">
        <lane id=":B3_16_0" index="0" speed="10.36" length="5.01" shape="301.60,886.40 300.89,891.36"/>
    </edge>
    <edge id=":B3_17" function="internal">
        <lane id=":B3_17_0" index="0" speed="3.65" length="1.44" shape="301.60,886.40 300.80,887.60"/>
    </edge>
    <edge id=":B3_28" function="internal">
        <lane id=":B3_28_0" index="0" speed="10.36" length="19.50" shape="300.89,891.36 300.65,893.05 297.80,897.80 293.05,900.65 286.40,901.60"/>
    </edge>
    <edge id=":B3_29" function="internal">
        <lane id=":B3_29_0" index="0" speed="3.65" length="3.23" shape="300.80,887.60 300.00,888.00 299.20,887.60 298.40,886.40"/>
    </edge>
    <edge id=":B3_18" function="internal">
        <lane id=":B3_18_0" index="0" speed="6.51" length="9.03" shape="286.40,892.00 288.85,891.65 290.60,890.60 291.65,888.85 292.00,886.40"/>
    </edge>
    <edge id=":B3_19" function="internal">
        <lane id=":B3_19_0" index="0" speed="13.89" length="27.20" shape="286.40,892.00 313.60,892.00"/>