<configuration>
    <files>
        <net-file value="road.net.xml" />
        <route-files value="route_8.rou.xml" />
        <summary value="summary_8.xml" />
    </files>
    <process>
        <begin value="0" />
        <time-to-teleport value="-1" />
    </process>
    <reports>
        <no-warnings value="True" />
    </reports>
</configuration>