<configuration>
    <files>
        <net-file value="road.net.xml" />
        <route-files value="route.rou.xml" />
    </files>
    <process>
        <begin value="0" />
        <time-to-teleport value="300" />
    </process>
    <reports>
        <verbose value="True" />
    </reports>
</configuration>