<?xml version="1.0" encoding="UTF-8"?>

<!-- generated on 2024-04-24 23:17:55 by Eclipse SUMO netedit Version 1.19.0
<configuration xmlns:xsi="http://www.w3.org/2001/XMLSchema-instance" xsi:noNamespaceSchemaLocation="http://sumo.dlr.de/xsd/neteditConfiguration.xsd">

    <input>
        <sumo-net-file value="data/road.net.xml"/>
    </input>

    <output>
        <output-file value="data/road.net.xml"/>
    </output>

    <processing>
        <geometry.min-radius.fix.railways value="false"/>
        <geometry.max-grade.fix value="false"/>
        <offset.disable-normalization value="true"/>
        <lefthand value="0"/>
    </processing>

    <junctions>
        <no-internal-links value="true"/>
        <no-turnarounds value="true"/>
        <junctions.corner-detail value="5"/>
        <junctions.limit-turn-speed value="5.50"/>
        <rectangular-lane-cut value="0"/>
    </junctions>

    <pedestrian>
        <walkingareas value="0"/>
    </pedestrian>

</configuration>
-->

<net version="1.16" junctionCornerDetail="5" limitTurnSpeed="5.50" xmlns:xsi="http://www.w3.org/2001/XMLSchema-instance" xsi:noNamespaceSchemaLocation="http://sumo.dlr.de/xsd/net_file.xsd">

    <location netOffset="0.00,0.00" convBoundary="0.00,0.00,600.00,600.00" origBoundary="0.00,0.00,600.00,600.00" projParameter="!"/>

    <edge id="A0A1" from="A0" to="A1" priority="-1">
        <lane id="A0A1_0" index="0" speed="13.89" length="200.00" shape="4.80,6.40 4.80,189.60"/>
        <lane id="A0A1_1" index="1" speed="13.89" length="200.00" shape="1.60,6.40 1.60,189.60"/>
    </edge>
    <edge id="A0B0" from="A0" to="B0" priority="-1">
        <lane id="A0B0_0" index="0" speed="13.89" length="200.00" shape="6.40,-4.80 189.60,-4.80"/>
        <lane id="A0B0_1" index="1" speed="13.89" length="200.00" shape="6.40,-1.60 189.60,-1.60"/>
    </edge>
    <edge id="A1A0" from="A1" to="A0" priority="-1">
        <lane id="A1A0_0" index="0" speed="13.89" length="200.00" shape="-4.80,189.60 -4.80,6.40"/>
        <lane id="A1A0_1" index="1" speed="13.89" length="200.00" shape="-1.60,189.60 -1.60,6.40"/>
    </edge>
    <edge id="A1A2" from="A1" to="A2" priority="-1">
        <lane id="A1A2_0" index="0" speed="13.89" length="200.00" shape="4.80,210.40 4.80,389.60"/>
        <lane id="A1A2_1" index="1" speed="13.89" length="200.00" shape="1.60,210.40 1.60,389.60"/>
    </edge>
    <edge id="A1B1" from="A1" to="B1" priority="-1">
        <lane id="A1B1_0" index="0" speed="13.89" length="200.00" shape="10.40,195.20 189.60,195.20"/>
        <lane id="A1B1_1" index="1" speed="13.89" length="200.00" shape="10.40,198.40 189.60,198.40"/>
    </edge>
    <edge id="A2A1" from="A2" to="A1" priority="-1">
        <lane id="A2A1_0" index="0" speed="13.89" length="200.00" shape="-4.80,389.60 -4.80,210.40"/>
        <lane id="A2A1_1" index="1" speed="13.89" length="200.00" shape="-1.60,389.60 -1.60,210.40"/>
    </edge>
    <edge id="A2A3" from="A2" to="A3" priority="-1">
        <lane id="A2A3_0" index="0" speed="13.89" length="200.00" shape="4.80,410.40 4.80,593.60"/>
        <lane id="A2A3_1" index="1" speed="13.89" length="200.00" shape="1.60,410.40 1.60,593.60"/>
    </edge>
    <edge id="A2B2" from="A2" to="B2" priority="-1">
        <lane id="A2B2_0" index="0" speed="13.89" length="200.00" shape="10.40,395.20 189.60,395.20"/>
        <lane id="A2B2_1" index="1" speed="13.89" length="200.00" shape="10.40,398.40 189.60,398.40"/>
    </edge>
    <edge id="A3A2" from="A3" to="A2" priority="-1">
        <lane id="A3A2_0" index="0" speed="13.89" length="200.00" shape="-4.80,593.60 -4.80,410.40"/>
        <lane id="A3A2_1" index="1" speed="13.89" length="200.00" shape="-1.60,593.60 -1.60,410.40"/>
    </edge>
    <edge id="A3B3" from="A3" to="B3" priority="-1">
        <lane id="A3B3_0" index="0" speed="13.89" length="200.00" shape="6.40,595.20 189.60,595.20"/>
        <lane id="A3B3_1" index="1" speed="13.89" length="200.00" shape="6.40,598.40 189.60,598.40"/>
    </edge>
    <edge id="B0A0" from="B0" to="A0" priority="-1">
        <lane id="B0A0_0" index="0" speed="13.89" length="200.00" shape="189.60,4.80 6.40,4.80"/>
        <lane id="B0A0_1" index="1" speed="13.89" length="200.00" shape="189.60,1.60 6.40,1.60"/>
    </edge>
    <edge id="B0B1" from="B0" to="B1" priority="-1">
        <lane id="B0B1_0" index="0" speed="13.89" length="200.00" shape="204.80,10.40 204.80,189.60"/>
        <lane id="B0B1_1" index="1" speed="13.89" length="200.00" shape="201.60,10.40 201.60,189.60"/>
    </edge>
    <edge id="B0C0" from="B0" to="C0" priority="-1">
        <lane id="B0C0_0" index="0" speed="13.89" length="200.00" shape="210.40,-4.80 389.60,-4.80"/>
        <lane id="B0C0_1" index="1" speed="13.89" length="200.00" shape="210.40,-1.60 389.60,-1.60"/>
    </edge>
    <edge id="B1A1" from="B1" to="A1" priority="-1">
        <lane id="B1A1_0" index="0" speed="13.89" length="200.00" shape="189.60,204.80 10.40,204.80"/>
        <lane id="B1A1_1" index="1" speed="13.89" length="200.00" shape="189.60,201.60 10.40,201.60"/>
    </edge>
    <edge id="B1B0" from="B1" to="B0" priority="-1">
        <lane id="B1B0_0" index="0" speed="13.89" length="200.00" shape="195.20,189.60 195.20,10.40"/>
        <lane id="B1B0_1" index="1" speed="13.89" length="200.00" shape="198.40,189.60 198.40,10.40"/>
    </edge>
    <edge id="B1B2" from="B1" to="B2" priority="-1">
        <lane id="B1B2_0" index="0" speed="13.89" length="200.00" shape="204.80,210.40 204.80,389.60"/>
        <lane id="B1B2_1" index="1" speed="13.89" length="200.00" shape="201.60,210.40 201.60,389.60"/>
    </edge>
    <edge id="B1C1" from="B1" to="C1" priority="-1">
        <lane id="B1C1_0" index="0" speed="13.89" length="200.00" shape="210.40,195.20 389.60,195.20"/>
        <lane id="B1C1_1" index="1" speed="13.89" length="200.00" shape="210.40,198.40 389.60,198.40"/>
    </edge>
    <edge id="B2A2" from="B2" to="A2" priority="-1">
        <lane id="B2A2_0" index="0" speed="13.89" length="200.00" shape="189.60,404.80 10.40,404.80"/>
        <lane id="B2A2_1" index="1" speed="13.89" length="200.00" shape="189.60,401.60 10.40,401.60"/>
    </edge>
    <edge id="B2B1" from="B2" to="B1" priority="-1">
        <lane id="B2B1_0" index="0" speed="13.89" length="200.00" shape="195.20,389.60 195.20,210.40"/>
        <lane id="B2B1_1" index="1" speed="13.89" length="200.00" shape="198.40,389.60 198.40,210.40"/>
    </edge>
    <edge id="B2B3" from="B2" to="B3" priority="-1">
        <lane id="B2B3_0" index="0" speed="13.89" length="200.00" shape="204.80,410.40 204.80,589.60"/>
        <lane id="B2B3_1" index="1" speed="13.89" length="200.00" shape="201.60,410.40 201.60,589.60"/>
    </edge>
    <edge id="B2C2" from="B2" to="C2" priority="-1">
        <lane id="B2C2_0" index="0" speed="13.89" length="200.00" shape="210.40,395.20 389.60,395.20"/>
        <lane id="B2C2_1" index="1" speed="13.89" length="200.00" shape="210.40,398.40 389.60,398.40"/>
    </edge>
    <edge id="B3A3" from="B3" to="A3" priority="-1">
        <lane id="B3A3_0" index="0" speed="13.89" length="200.00" shape="189.60,604.80 6.40,604.80"/>
        <lane id="B3A3_1" index="1" speed="13.89" length="200.00" shape="189.60,601.60 6.40,601.60"/>
    </edge>
    <edge id="B3B2" from="B3" to="B2" priority="-1">
        <lane id="B3B2_0" index="0" speed="13.89" length="200.00" shape="195.20,589.60 195.20,410.40"/>
        <lane id="B3B2_1" index="1" speed="13.89" length="200.00" shape="198.40,589.60 198.40,410.40"/>
    </edge>
    <edge id="B3C3" from="B3" to="C3" priority="-1">
        <lane id="B3C3_0" index="0" speed="13.89" length="200.00" shape="210.40,595.20 389.60,595.20"/>
        <lane id="B3C3_1" index="1" speed="13.89" length="200.00" shape="210.40,598.40 389.60,598.40"/>
    </edge>
    <edge id="C0B0" from="C0" to="B0" priority="-1">
        <lane id="C0B0_0" index="0" speed="13.89" length="200.00" shape="389.60,4.80 210.40,4.80"/>
        <lane id="C0B0_1" index="1" speed="13.89" length="200.00" shape="389.60,1.60 210.40,1.60"/>
    </edge>
    <edge id="C0C1" from="C0" to="C1" priority="-1">
        <lane id="C0C1_0" index="0" speed="13.89" length="200.00" shape="404.80,10.40 404.80,189.60"/>
        <lane id="C0C1_1" index="1" speed="13.89" length="200.00" shape="401.60,10.40 401.60,189.60"/>
    </edge>
    <edge id="C0D0" from="C0" to="D0" priority="-1">
        <lane id="C0D0_0" index="0" speed="13.89" length="200.00" shape="410.40,-4.80 593.60,-4.80"/>
        <lane id="C0D0_1" index="1" speed="13.89" length="200.00" shape="410.40,-1.60 593.60,-1.60"/>
    </edge>
    <edge id="C1B1" from="C1" to="B1" priority="-1">
        <lane id="C1B1_0" index="0" speed="13.89" length="200.00" shape="389.60,204.80 210.40,204.80"/>
        <lane id="C1B1_1" index="1" speed="13.89" length="200.00" shape="389.60,201.60 210.40,201.60"/>
    </edge>
    <edge id="C1C0" from="C1" to="C0" priority="-1">
        <lane id="C1C0_0" index="0" speed="13.89" length="200.00" shape="395.20,189.60 395.20,10.40"/>
        <lane id="C1C0_1" index="1" speed="13.89" length="200.00" shape="398.40,189.60 398.40,10.40"/>
    </edge>
    <edge id="C1C2" from="C1" to="C2" priority="-1">
        <lane id="C1C2_0" index="0" speed="13.89" length="200.00" shape="404.80,210.40 404.80,389.60"/>
        <lane id="C1C2_1" index="1" speed="13.89" length="200.00" shape="401.60,210.40 401.60,389.60"/>
    </edge>
    <edge id="C1D1" from="C1" to="D1" priority="-1">
        <lane id="C1D1_0" index="0" speed="13.89" length="200.00" shape="410.40,195.20 589.60,195.20"/>
        <lane id="C1D1_1" index="1" speed="13.89" length="200.00" shape="410.40,198.40 589.60,198.40"/>
    </edge>
    <edge id="C2B2" from="C2" to="B2" priority="-1">
        <lane id="C2B2_0" index="0" speed="13.89" length="200.00" shape="389.60,404.80 210.40,404.80"/>
        <lane id="C2B2_1" index="1" speed="13.89" length="200.00" shape="389.60,401.60 210.40,401.60"/>
    </edge>
    <edge id="C2C1" from="C2" to="C1" priority="-1">
        <lane id="C2C1_0" index="0" speed="13.89" length="200.00" shape="395.20,389.60 395.20,210.40"/>
        <lane id="C2C1_1" index="1" speed="13.89" length="200.00" shape="398.40,389.60 398.40,210.40"/>
    </edge>
    <edge id="C2C3" from="C2" to="C3" priority="-1">
        <lane id="C2C3_0" index="0" speed="13.89" length="200.00" shape="404.80,410.40 404.80,589.60"/>
        <lane id="C2C3_1" index="1" speed="13.89" length="200.00" shape="401.60,410.40 401.60,589.60"/>
    </edge>
    <edge id="C2D2" from="C2" to="D2" priority="-1">
        <lane id="C2D2_0" index="0" speed="13.89" length="200.00" shape="410.40,395.20 589.60,395.20"/>
        <lane id="C2D2_1" index="1" speed="13.89" length="200.00" shape="410.40,398.40 589.60,398.40"/>
    </edge>
    <edge id="C3B3" from="C3" to="B3" priority="-1">
        <lane id="C3B3_0" index="0" speed="13.89" length="200.00" shape="389.60,604.80 210.40,604.80"/>
        <lane id="C3B3_1" index="1" speed="13.89" length="200.00" shape="389.60,601.60 210.40,601.60"/>
    </edge>
    <edge id="C3C2" from="C3" to="C2" priority="-1">
        <lane id="C3C2_0" index="0" speed="13.89" length="200.00" shape="395.20,589.60 395.20,410.40"/>
        <lane id="C3C2_1" index="1" speed="13.89" length="200.00" shape="398.40,589.60 398.40,410.40"/>
    </edge>
    <edge id="C3D3" from="C3" to="D3" priority="-1">
        <lane id="C3D3_0" index="0" speed="13.89" length="200.00" shape="410.40,595.20 593.60,595.20"/>
        <lane id="C3D3_1" index="1" speed="13.89" length="200.00" shape="410.40,598.40 593.60,598.40"/>
    </edge>
    <edge id="D0C0" from="D0" to="C0" priority="-1">
        <lane id="D0C0_0" index="0" speed="13.89" length="200.00" shape="593.60,4.80 410.40,4.80"/>
        <lane id="D0C0_1" index="1" speed="13.89" length="200.00" shape="593.60,1.60 410.40,1.60"/>
    </edge>
    <edge id="D0D1" from="D0" to="D1" priority="-1">
        <lane id="D0D1_0" index="0" speed="13.89" length="200.00" shape="604.80,6.40 604.80,189.60"/>
        <lane id="D0D1_1" index="1" speed="13.89" length="200.00" shape="601.60,6.40 601.60,189.60"/>
    </edge>
    <edge id="D1C1" from="D1" to="C1" priority="-1">
        <lane id="D1C1_0" index="0" speed="13.89" length="200.00" shape="589.60,204.80 410.40,204.80"/>
        <lane id="D1C1_1" index="1" speed="13.89" length="200.00" shape="589.60,201.60 410.40,201.60"/>
    </edge>
    <edge id="D1D0" from="D1" to="D0" priority="-1">
        <lane id="D1D0_0" index="0" speed="13.89" length="200.00" shape="595.20,189.60 595.20,6.40"/>
        <lane id="D1D0_1" index="1" speed="13.89" length="200.00" shape="598.40,189.60 598.40,6.40"/>
    </edge>
    <edge id="D1D2" from="D1" to="D2" priority="-1">
        <lane id="D1D2_0" index="0" speed="13.89" length="200.00" shape="604.80,210.40 604.80,389.60"/>
        <lane id="D1D2_1" index="1" speed="13.89" length="200.00" shape="601.60,210.40 601.60,389.60"/>
    </edge>
    <edge id="D2C2" from="D2" to="C2" priority="-1">
        <lane id="D2C2_0" index="0" speed="13.89" length="200.00" shape="589.60,404.80 410.40,404.80"/>
        <lane id="D2C2_1" index="1" speed="13.89" length="200.00" shape="589.60,401.60 410.40,401.60"/>
    </edge>
    <edge id="D2D1" from="D2" to="D1" priority="-1">
        <lane id="D2D1_0" index="0" speed="13.89" length="200.00" shape="595.20,389.60 595.20,210.40"/>
        <lane id="D2D1_1" index="1" speed="13.89" length="200.00" shape="598.40,389.60 598.40,210.40"/>
    </edge>
    <edge id="D2D3" from="D2" to="D3" priority="-1">
        <lane id="D2D3_0" index="0" speed="13.89" length="200.00" shape="604.80,410.40 604.80,593.60"/>
        <lane id="D2D3_1" index="1" speed="13.89" length="200.00" shape="601.60,410.40 601.60,593.60"/>
    </edge>
    <edge id="D3C3" from="D3" to="C3" priority="-1">
        <lane id="D3C3_0" index="0" speed="13.89" length="200.00" shape="593.60,604.80 410.40,604.80"/>
        <lane id="D3C3_1" index="1" speed="13.89" length="200.00" shape="593.60,601.60 410.40,601.60"/>
    </edge>
    <edge id="D3D2" from="D3" to="D2" priority="-1">
        <lane id="D3D2_0" index="0" speed="13.89" length="200.00" shape="595.20,593.60 595.20,410.40"/>
        <lane id="D3D2_1" index="1" speed="13.89" length="200.00" shape="598.40,593.60 598.40,410.40"/>
    </edge>

    <tlLogic id="A0" type="static" programID="0" offset="0">
        <phase duration="42" state="GGGG"/>
        <phase duration="3"  state="yyyy"/>
        <phase duration="42" state="GGGG"/>
        <phase duration="3"  state="yyyy"/>
    </tlLogic>
    <tlLogic id="A1" type="static" programID="0" offset="0">
        <phase duration="42" state="GGgrrrGGG"/>
        <phase duration="3"  state="yyyrrryyy"/>
        <phase duration="42" state="rrrGGGrrr"/>
        <phase duration="3"  state="rrryyyrrr"/>
    </tlLogic>
    <tlLogic id="A2" type="static" programID="0" offset="0">
        <phase duration="42" state="GGgrrrGGG"/>
        <phase duration="3"  state="yyyrrryyy"/>
        <phase duration="42" state="rrrGGGrrr"/>
        <phase duration="3"  state="rrryyyrrr"/>
    </tlLogic>
    <tlLogic id="A3" type="static" programID="0" offset="0">
        <phase duration="42" state="GGGG"/>
        <phase duration="3"  state="yyyy"/>
        <phase duration="42" state="GGGG"/>
        <phase duration="3"  state="yyyy"/>
    </tlLogic>
    <tlLogic id="B0" type="static" programID="0" offset="0">
        <phase duration="42" state="rrrGGGGGg"/>
        <phase duration="3"  state="rrryyyyyy"/>
        <phase duration="42" state="GGGrrrrrr"/>
        <phase duration="3"  state="yyyrrrrrr"/>
    </tlLogic>
    <tlLogic id="B1" type="static" programID="0" offset="0">
        <phase duration="42" state="GGGgrrrrGGGgrrrr"/>
        <phase duration="3"  state="yyyyrrrryyyyrrrr"/>
        <phase duration="42" state="rrrrGGGgrrrrGGGg"/>
        <phase duration="3"  state="rrrryyyyrrrryyyy"/>
    </tlLogic>
    <tlLogic id="B2" type="static" programID="0" offset="0">
        <phase duration="42" state="GGGgrrrrGGGgrrrr"/>
        <phase duration="3"  state="yyyyrrrryyyyrrrr"/>
        <phase duration="42" state="rrrrGGGgrrrrGGGg"/>
        <phase duration="3"  state="rrrryyyyrrrryyyy"/>
    </tlLogic>
    <tlLogic id="B3" type="static" programID="0" offset="0">
        <phase duration="42" state="GGgrrrGGG"/>
        <phase duration="3"  state="yyyrrryyy"/>
        <phase duration="42" state="rrrGGGrrr"/>
        <phase duration="3"  state="rrryyyrrr"/>
    </tlLogic>
    <tlLogic id="C0" type="static" programID="0" offset="0">
        <phase duration="42" state="rrrGGGGGg"/>
        <phase duration="3"  state="rrryyyyyy"/>
        <phase duration="42" state="GGGrrrrrr"/>
        <phase duration="3"  state="yyyrrrrrr"/>
    </tlLogic>
    <tlLogic id="C1" type="static" programID="0" offset="0">
        <phase duration="42" state="GGGgrrrrGGGgrrrr"/>
        <phase duration="3"  state="yyyyrrrryyyyrrrr"/>
        <phase duration="42" state="rrrrGGGgrrrrGGGg"/>
        <phase duration="3"  state="rrrryyyyrrrryyyy"/>
    </tlLogic>
    <tlLogic id="C2" type="static" programID="0" offset="0">
        <phase duration="42" state="GGGgrrrrGGGgrrrr"/>
        <phase duration="3"  state="yyyyrrrryyyyrrrr"/>
        <phase duration="42" state="rrrrGGGgrrrrGGGg"/>
        <phase duration="3"  state="rrrryyyyrrrryyyy"/>
    </tlLogic>
    <tlLogic id="C3" type="static" programID="0" offset="0">
        <phase duration="42" state="GGgrrrGGG"/>
        <phase duration="3"  state="yyyrrryyy"/>
        <phase duration="42" state="rrrGGGrrr"/>
        <phase duration="3"  state="rrryyyrrr"/>
    </tlLogic>
    <tlLogic id="D0" type="static" programID="0" offset="0">
        <phase duration="42" state="GGGG"/>
        <phase duration="3"  state="yyyy"/>
        <phase duration="42" state="GGGG"/>
        <phase duration="3"  state="yyyy"/>
    </tlLogic>
    <tlLogic id="D1" type="static" programID="0" offset="0">
        <phase duration="42" state="GGGGGgrrr"/>
        <phase duration="3"  state="yyyyyyrrr"/>
        <phase duration="42" state="rrrrrrGGG"/>
        <phase duration="3"  state="rrrrrryyy"/>
    </tlLogic>
    <tlLogic id="D2" type="static" programID="0" offset="0">
        <phase duration="42" state="GGGGGgrrr"/>
        <phase duration="3"  state="yyyyyyrrr"/>
        <phase duration="42" state="rrrrrrGGG"/>
        <phase duration="3"  state="rrrrrryyy"/>
    </tlLogic>
    <tlLogic id="D3" type="static" programID="0" offset="0">
        <phase duration="42" state="GGGG"/>
        <phase duration="3"  state="yyyy"/>
        <phase duration="42" state="GGGG"/>
        <phase duration="3"  state="yyyy"/>
    </tlLogic>

    <junction id="A0" type="traffic_light" x="0.00" y="0.00" incLanes="A1A0_0 A1A0_1 B0A0_0 B0A0_1" intLanes="" shape="-6.40,6.40 6.40,6.40 6.40,-6.40 2.49,-6.04 -0.71,-4.98 -3.20,-3.20 -4.98,-0.71 -6.04,2.49">
        <request index="0" response="0000" foes="0000"/>
        <request index="1" response="0000" foes="0000"/>
        <request index="2" response="0000" foes="0000"/>
        <request index="3" response="0000" foes="0000"/>
    </junction>
    <junction id="A1" type="traffic_light" x="0.00" y="200.00" incLanes="A2A1_0 A2A1_1 B1A1_0 B1A1_1 A0A1_0 A0A1_1" intLanes="" shape="-6.40,210.40 6.40,210.40 6.84,208.18 7.40,207.40 8.18,206.84 9.18,206.51 10.40,206.40 10.40,193.60 8.18,193.16 7.40,192.60 6.84,191.82 6.51,190.82 6.40,189.60 -6.40,189.60">
        <request index="0" response="000000000" foes="000100000"/>
        <request index="1" response="000000000" foes="000100000"/>
        <request index="2" response="110000000" foes="110100000"/>
        <request index="3" response="110000000" foes="110000000"/>
        <request index="4" response="110000000" foes="110000000"/>
        <request index="5" response="110000111" foes="110000111"/>
        <request index="6" response="000000000" foes="000000000"/>
        <request index="7" response="000000000" foes="000111100"/>
        <request index="8" response="000000000" foes="000111100"/>
    </junction>
    <junction id="A2" type="traffic_light" x="0.00" y="400.00" incLanes="A3A2_0 A3A2_1 B2A2_0 B2A2_1 A1A2_0 A1A2_1" intLanes="" shape="-6.40,410.40 6.40,410.40 6.84,408.18 7.40,407.40 8.18,406.84 9.18,406.51 10.40,406.40 10.40,393.60 8.18,393.16 7.40,392.60 6.84,391.82 6.51,390.82 6.40,389.60 -6.40,389.60">
        <request index="0" response="000000000" foes="000100000"/>
        <request index="1" response="000000000" foes="000100000"/>
        <request index="2" response="110000000" foes="110100000"/>
        <request index="3" response="110000000" foes="110000000"/>
        <request index="4" response="110000000" foes="110000000"/>
        <request index="5" response="110000111" foes="110000111"/>
        <request index="6" response="000000000" foes="000000000"/>
        <request index="7" response="000000000" foes="000111100"/>
        <request index="8" response="000000000" foes="000111100"/>
    </junction>
    <junction id="A3" type="traffic_light" x="0.00" y="600.00" incLanes="B3A3_0 B3A3_1 A2A3_0 A2A3_1" intLanes="" shape="6.40,606.40 6.40,593.60 -6.40,593.60 -6.04,597.51 -4.98,600.71 -3.20,603.20 -0.71,604.98 2.49,606.04">
        <request index="0" response="0000" foes="0000"/>
        <request index="1" response="0000" foes="0000"/>
        <request index="2" response="0000" foes="0000"/>
        <request index="3" response="0000" foes="0000"/>
    </junction>
    <junction id="B0" type="traffic_light" x="200.00" y="0.00" incLanes="B1B0_0 B1B0_1 C0B0_0 C0B0_1 A0B0_0 A0B0_1" intLanes="" shape="193.60,10.40 206.40,10.40 206.84,8.18 207.40,7.40 208.18,6.84 209.18,6.51 210.40,6.40 210.40,-6.40 189.60,-6.40 189.60,6.40 191.82,6.84 192.60,7.40 193.16,8.18 193.49,9.18">
        <request index="0" response="000110000" foes="000110000"/>
        <request index="1" response="000110000" foes="000110000"/>
        <request index="2" response="111110000" foes="111110000"/>
        <request index="3" response="000000000" foes="000000000"/>
        <request index="4" response="000000000" foes="100000111"/>
        <request index="5" response="000000000" foes="100000111"/>
        <request index="6" response="000000000" foes="000000100"/>
        <request index="7" response="000000000" foes="000000100"/>
        <request index="8" response="000110000" foes="000110100"/>
    </junction>
    <junction id="B1" type="traffic_light" x="200.00" y="200.00" incLanes="B2B1_0 B2B1_1 C1B1_0 C1B1_1 B0B1_0 B0B1_1 A1B1_0 A1B1_1" intLanes="" shape="193.60,210.40 206.40,210.40 206.84,208.18 207.40,207.40 208.18,206.84 209.18,206.51 210.40,206.40 210.40,193.60 208.18,193.16 207.40,192.60 206.84,191.82 206.51,190.82 206.40,189.60 193.60,189.60 193.16,191.82 192.60,192.60 191.82,193.16 190.82,193.49 189.60,193.60 189.60,206.40 191.82,206.84 192.60,207.40 193.16,208.18 193.49,209.18">
        <request index="0"  response="0000000000000000" foes="0000000001100000"/>
        <request index="1"  response="0000000000000000" foes="1111100011100000"/>
        <request index="2"  response="0000000000000000" foes="1111100011100000"/>
        <request index="3"  response="0000011000000000" foes="1110011011100000"/>
        <request index="4"  response="0000011000000000" foes="0000011000000000"/>
        <request index="5"  response="0000111000001111" foes="1000111000001111"/>
        <request index="6"  response="0000111000001111" foes="1000111000001111"/>
        <request index="7"  response="0110111000001110" foes="0110111000001110"/>
        <request index="8"  response="0000000000000000" foes="0110000000000000"/>
        <request index="9"  response="0000000000000000" foes="1110000011111000"/>
        <request index="10" response="0000000000000000" foes="1110000011111000"/>
        <request index="11" response="0000000000000110" foes="1110000011100110"/>
        <request index="12" response="0000000000000110" foes="0000000000000110"/>
        <request index="13" response="0000111100001110" foes="0000111110001110"/>
        <request index="14" response="0000111100001110" foes="0000111110001110"/>
        <request index="15" response="0000111001101110" foes="0000111001101110"/>
    </junction>
    <junction id="B2" type="traffic_light" x="200.00" y="400.00" incLanes="B3B2_0 B3B2_1 C2B2_0 C2B2_1 B1B2_0 B1B2_1 A2B2_0 A2B2_1" intLanes="" shape="193.60,410.40 206.40,410.40 206.84,408.18 207.40,407.40 208.18,406.84 209.18,406.51 210.40,406.40 210.40,393.60 208.18,393.16 207.40,392.60 206.84,391.82 206.51,390.82 206.40,389.60 193.60,389.60 193.16,391.82 192.60,392.60 191.82,393.16 190.82,393.49 189.60,393.60 189.60,406.40 191.82,406.84 192.60,407.40 193.16,408.18 193.49,409.18">
        <request index="0"  response="0000000000000000" foes="0000000001100000"/>
        <request index="1"  response="0000000000000000" foes="1111100011100000"/>
        <request index="2"  response="0000000000000000" foes="1111100011100000"/>
        <request index="3"  response="0000011000000000" foes="1110011011100000"/>
        <request index="4"  response="0000011000000000" foes="0000011000000000"/>
        <request index="5"  response="0000111000001111" foes="1000111000001111"/>
        <request index="6"  response="0000111000001111" foes="1000111000001111"/>
        <request index="7"  response="0110111000001110" foes="0110111000001110"/>
        <request index="8"  response="0000000000000000" foes="0110000000000000"/>
        <request index="9"  response="0000000000000000" foes="1110000011111000"/>
        <request index="10" response="0000000000000000" foes="1110000011111000"/>
        <request index="11" response="0000000000000110" foes="1110000011100110"/>
        <request index="12" response="0000000000000110" foes="0000000000000110"/>
        <request index="13" response="0000111100001110" foes="0000111110001110"/>
        <request index="14" response="0000111100001110" foes="0000111110001110"/>
        <request index="15" response="0000111001101110" foes="0000111001101110"/>
    </junction>
    <junction id="B3" type="traffic_light" x="200.00" y="600.00" incLanes="C3B3_0 C3B3_1 B2B3_0 B2B3_1 A3B3_0 A3B3_1" intLanes="" shape="210.40,606.40 210.40,593.60 208.18,593.16 207.40,592.60 206.84,591.82 206.51,590.82 206.40,589.60 193.60,589.60 193.16,591.82 192.60,592.60 191.82,593.16 190.82,593.49 189.60,593.60 189.60,606.40">
        <request index="0" response="000000000" foes="000100000"/>
        <request index="1" response="000000000" foes="000100000"/>
        <request index="2" response="110000000" foes="110100000"/>
        <request index="3" response="110000000" foes="110000000"/>
        <request index="4" response="110000000" foes="110000000"/>
        <request index="5" response="110000111" foes="110000111"/>
        <request index="6" response="000000000" foes="000000000"/>
        <request index="7" response="000000000" foes="000111100"/>
        <request index="8" response="000000000" foes="000111100"/>
    </junction>
    <junction id="C0" type="traffic_light" x="400.00" y="0.00" incLanes="C1C0_0 C1C0_1 D0C0_0 D0C0_1 B0C0_0 B0C0_1" intLanes="" shape="393.60,10.40 406.40,10.40 406.84,8.18 407.40,7.40 408.18,6.84 409.18,6.51 410.40,6.40 410.40,-6.40 389.60,-6.40 389.60,6.40 391.82,6.84 392.60,7.40 393.16,8.18 393.49,9.18">
        <request index="0" response="000110000" foes="000110000"/>
        <request index="1" response="000110000" foes="000110000"/>
        <request index="2" response="111110000" foes="111110000"/>
        <request index="3" response="000000000" foes="000000000"/>
        <request index="4" response="000000000" foes="100000111"/>
        <request index="5" response="000000000" foes="100000111"/>
        <request index="6" response="000000000" foes="000000100"/>
        <request index="7" response="000000000" foes="000000100"/>
        <request index="8" response="000110000" foes="000110100"/>
    </junction>
    <junction id="C1" type="traffic_light" x="400.00" y="200.00" incLanes="C2C1_0 C2C1_1 D1C1_0 D1C1_1 C0C1_0 C0C1_1 B1C1_0 B1C1_1" intLanes="" shape="393.60,210.40 406.40,210.40 406.84,208.18 407.40,207.40 408.18,206.84 409.18,206.51 410.40,206.40 410.40,193.60 408.18,193.16 407.40,192.60 406.84,191.82 406.51,190.82 406.40,189.60 393.60,189.60 393.16,191.82 392.60,192.60 391.82,193.16 390.82,193.49 389.60,193.60 389.60,206.40 391.82,206.84 392.60,207.40 393.16,208.18 393.49,209.18">
        <request index="0"  response="0000000000000000" foes="0000000001100000"/>
        <request index="1"  response="0000000000000000" foes="1111100011100000"/>
        <request index="2"  response="0000000000000000" foes="1111100011100000"/>
        <request index="3"  response="0000011000000000" foes="1110011011100000"/>
        <request index="4"  response="0000011000000000" foes="0000011000000000"/>
        <request index="5"  response="0000111000001111" foes="1000111000001111"/>
        <request index="6"  response="0000111000001111" foes="1000111000001111"/>
        <request index="7"  response="0110111000001110" foes="0110111000001110"/>
        <request index="8"  response="0000000000000000" foes="0110000000000000"/>
        <request index="9"  response="0000000000000000" foes="1110000011111000"/>
        <request index="10" response="0000000000000000" foes="1110000011111000"/>
        <request index="11" response="0000000000000110" foes="1110000011100110"/>
        <request index="12" response="0000000000000110" foes="0000000000000110"/>
        <request index="13" response="0000111100001110" foes="0000111110001110"/>
        <request index="14" response="0000111100001110" foes="0000111110001110"/>
        <request index="15" response="0000111001101110" foes="0000111001101110"/>
    </junction>