<?xml version="1.0" encoding="UTF-8"?>

<!-- generated on 2024-04-28 23:37:32 by Eclipse SUMO netedit Version 1.19.0
<configuration xmlns:xsi="http://www.w3.org/2001/XMLSchema-instance" xsi:noNamespaceSchemaLocation="http://sumo.dlr.de/xsd/neteditConfiguration.xsd">

    <input>
        <sumo-net-file value="data/road.net.xml"/>
    </input>

    <output>
        <output-file value="data/road.net.xml"/>
    </output>

    <processing>
        <geometry.min-radius.fix.railways value="false"/>
        <geometry.max-grade.fix value="false"/>
        <offset.disable-normalization value="true"/>
        <lefthand value="0"/>
    </processing>

    <junctions>
        <no-turnarounds value="true"/>
        <junctions.corner-detail value="5"/>
        <junctions.limit-turn-speed value="5.50"/>
        <rectangular-lane-cut value="0"/>
    </junctions>

    <pedestrian>
        <walkingareas value="0"/>
    </pedestrian>

</configuration>
-->

<net version="1.16" junctionCornerDetail="5" limitTurnSpeed="5.50" xmlns:xsi="http://www.w3.org/2001/XMLSchema-instance" xsi:noNamespaceSchemaLocation="http://sumo.dlr.de/xsd/net_file.xsd">

    <location netOffset="0.00,0.00" convBoundary="0.00,0.00,600.00,600.00" origBoundary="0.00,0.00,600.00,600.00" projParameter="!"/>

    <edge id=":A0_0" function="internal">
        <lane id=":A0_0_0" index="0" speed="3.90" length="2.58" shape="6.40,4.80 5.70,4.90 5.20,5.20 4.90,5.70 4.80,6.40"/>
        <lane id=":A0_0_1" index="1" speed="6.08" length="7.74" shape="6.40,1.60 4.30,1.90 2.80,2.80 1.90,4.30 1.60,6.40"/>
    </edge>
    <edge id=":A1_0" function="internal">
        <lane id=":A1_0_0" index="0" speed="6.51" length="9.03" shape="10.40,204.80 7.95,205.15 6.20,206.20 5.15,207.95 4.80,210.40"/>
        <lane id=":A1_0_1" index="1" speed="8.00" length="14.19" shape="10.40,201.60 6.55,202.15 3.80,203.80 2.15,206.55 1.60,210.40"/>
    </edge>
    <edge id=":A1_2" function="internal">
        <lane id=":A1_2_0" index="0" speed="6.51" length="9.03" shape="4.80,189.60 5.15,192.05 6.20,193.80 7.95,194.85 10.40,195.20"/>
        <lane id=":A1_2_1" index="1" speed="7.33" length="11.73" shape="4.80,189.60 5.15,193.45 6.20,196.20 7.95,197.85 10.40,198.40"/>
    </edge>
    <edge id=":A1_4" function="internal">
        <lane id=":A1_4_0" index="0" speed="13.89" length="20.80" shape="4.80,189.60 4.80,210.40"/>
        <lane id=":A1_4_1" index="1" speed="13.89" length="20.80" shape="1.60,189.60 1.60,210.40"/>
    </edge>
    <edge id=":A2_0" function="internal">
        <lane id=":A2_0_0" index="0" speed="6.51" length="9.03" shape="10.40,404.80 7.95,405.15 6.20,406.20 5.15,407.95 4.80,410.40"/>
        <lane id=":A2_0_1" index="1" speed="8.00" length="14.19" shape="10.40,401.60 6.55,402.15 3.80,403.80 2.15,406.55 1.60,410.40"/>
    </edge>
    <edge id=":A2_2" function="internal">
        <lane id=":A2_2_0" index="0" speed="6.51" length="9.03" shape="4.80,389.60 5.15,392.05 6.20,393.80 7.95,394.85 10.40,395.20"/>
        <lane id=":A2_2_1" index="1" speed="7.33" length="11.73" shape="4.80,389.60 5.15,393.45 6.20,396.20 7.95,397.85 10.40,398.40"/>
    </edge>
    <edge id=":A2_4" function="internal">
        <lane id=":A2_4_0" index="0" speed="13.89" length="20.80" shape="4.80,389.60 4.80,410.40"/>
        <lane id=":A2_4_1" index="1" speed="13.89" length="20.80" shape="1.60,389.60 1.60,410.40"/>
    </edge>
    <edge id=":A3_0" function="internal">
        <lane id=":A3_0_0" index="0" speed="3.90" length="2.58" shape="4.80,593.60 4.90,594.30 5.20,594.80 5.70,595.10 6.40,595.20"/>
        <lane id=":A3_0_1" index="1" speed="6.08" length="7.74" shape="1.60,593.60 1.90,595.70 2.80,597.20 4.30,598.10 6.40,598.40"/>
    </edge>
    <edge id=":B0_0" function="internal">
        <lane id=":B0_0_0" index="0" speed="6.51" length="9.03" shape="195.20,10.40 194.85,7.95 193.80,6.20 192.05,5.15 189.60,4.80"/>
        <lane id=":B0_0_1" index="1" speed="8.00" length="14.19" shape="198.40,10.40 197.85,6.55 196.20,3.80 193.45,2.15 189.60,1.60"/>
    </edge>
    <edge id=":B0_2" function="internal">
        <lane id=":B0_2_0" index="0" speed="6.51" length="9.03" shape="210.40,4.80 207.95,5.15 206.20,6.20 205.15,7.95 204.80,10.40"/>
        <lane id=":B0_2_1" index="1" speed="7.33" length="11.73" shape="210.40,4.80 206.55,5.15 203.80,6.20 202.15,7.95 201.60,10.40"/>
    </edge>
    <edge id=":B0_4" function="internal">
        <lane id=":B0_4_0" index="0" speed="13.89" length="20.80" shape="210.40,4.80 189.60,4.80"/>
        <lane id=":B0_4_1" index="1" speed="13.89" length="20.80" shape="210.40,1.60 189.60,1.60"/>
    </edge>
    <edge id=":B1_0" function="internal">
        <lane id=":B1_0_0" index="0" speed="6.51" length="9.03" shape="195.20,210.40 194.85,207.95 193.80,206.20 192.05,205.15 189.60,204.80"/>
    </edge>
    <edge id=":B1_1" function="internal">
        <lane id=":B1_1_0" index="0" speed="13.89" length="20.80" shape="195.20,210.40 195.20,189.60"/>
        <lane id=":B1_1_1" index="1" speed="13.89" length="20.80" shape="198.40,210.40 198.40,189.60"/>
    </edge>
    <edge id=":B1_3" function="internal">
        <lane id=":B1_3_0" index="0" speed="6.51" length="9.03" shape="210.40,204.80 207.95,205.15 206.20,206.20 205.15,207.95 204.80,210.40"/>
    </edge>
    <edge id=":B1_4" function="internal">
        <lane id=":B1_4_0" index="0" speed="13.89" length="20.80" shape="210.40,204.80 189.60,204.80"/>
        <lane id=":B1_4_1" index="1" speed="13.89" length="20.80" shape="210.40,201.60 189.60,201.60"/>
    </edge>
    <edge id=":B1_6" function="internal">
        <lane id=":B1_6_0" index="0" speed="6.51" length="9.03" shape="204.80,189.60 205.15,192.05 206.20,193.80 207.95,194.85 210.40,195.20"/>
    </edge>
    <edge id=":B1_7" function="internal">
        <lane id=":B1_7_0" index="0" speed="13.89" length="20.80" shape="204.80,189.60 204.80,210.40"/>
        <lane id=":B1_7_1" index="1" speed="13.89" length="20.80" shape="201.60,189.60 201.60,210.40"/>
    </edge>
    <edge id=":B1_9" function="internal">
        <lane id=":B1_9_0" index="0" speed="6.51" length="9.03" shape="189.60,195.20 192.05,194.85 193.80,193.80 194.85,192.05 195.20,189.60"/>
    </edge>
    <edge id=":B1_10" function="internal">
        <lane id=":B1_10_0" index="0" speed="13.89" length="20.80" shape="189.60,195.20 210.40,195.20"/>
        <lane id=":B1_10_1" index="1" speed="13.89" length="20.80" shape="189.60,198.40 210.40,198.40"/>
    </edge>
    <edge id=":B2_0" function="internal">
        <lane id=":B2_0_0" index="0" speed="6.51" length="9.03" shape="195.20,410.40 194.85,407.95 193.80,406.20 192.05,405.15 189.60,404.80"/>
    </edge>
    <edge id=":B2_1" function="internal">
        <lane id=":B2_1_0" index="0" speed="13.89" length="20.80" shape="195.20,410.40 195.20,389.60"/>
        <lane id=":B2_1_1" index="1" speed="13.89" length="20.80" shape="198.40,410.40 198.40,389.60"/>
    </edge>
    <edge id=":B2_3" function="internal">
        <lane id=":B2_3_0" index="0" speed="6.51" length="9.03" shape="210.40,404.80 207.95,405.15 206.20,406.20 205.15,407.95 204.80,410.40"/>
    </edge>
    <edge id=":B2_4" function="internal">
        <lane id=":B2_4_0" index="0" speed="13.89" length="20.80" shape="210.40,404.80 189.60,404.80"/>
        <lane id=":B2_4_1" index="1" speed="13.89" length="20.80" shape="210.40,401.60 189.60,401.60"/>
    </edge>
    <edge id=":B2_6" function="internal">
        <lane id=":B2_6_0" index="0" speed="6.51" length="9.03" shape="204.80,389.60 205.15,392.05 206.20,393.80 207.95,394.85 210.40,395.20"/>
    </edge>
    <edge id=":B2_7" function="internal">
        <lane id=":B2_7_0" index="0" speed="13.89" length="20.80" shape="204.80,389.60 204.80,410.40"/>
        <lane id=":B2_7_1" index="1" speed="13.89" length="20.80" shape="201.60,389.60 201.60,410.40"/>
    </edge>
    <edge id=":B2_9" function="internal">
        <lane id=":B2_9_0" index="0" speed="6.51" length="9.03" shape="189.60,395.20 192.05,394.85 193.80,393.80 194.85,392.05 195.20,389.60"/>
    </edge>
    <edge id=":B2_10" function="internal">
        <lane id=":B2_10_0" index="0" speed="13.89" length="20.80" shape="189.60,395.20 210.40,395.20"/>
        <lane id=":B2_10_1" index="1" speed="13.89" length="20.80" shape="189.60,398.40 210.40,398.40"/>
    </edge>
    <edge id=":B3_0" function="internal">
        <lane id=":B3_0_0" index="0" speed="6.51" length="9.03" shape="204.80,589.60 205.15,592.05 206.20,593.80 207.95,594.85 210.40,595.20"/>
        <lane id=":B3_0_1" index="1" speed="8.00" length="14.19" shape="201.60,589.60 202.15,593.45 203.80,596.20 206.55,597.85 210.40,598.40"/>
    </edge>
    <edge id=":B3_2" function="internal">
        <lane id=":B3_2_0" index="0" speed="6.51" length="9.03" shape="189.60,595.20 192.05,594.85 193.80,593.80 194.85,592.05 195.20,589.60"/>
        <lane id=":B3_2_1" index="1" speed="7.33" length="11.73" shape="189.60,595.20 193.45,594.85 196.20,593.80 197.85,592.05 198.40,589.60"/>
    </edge>
    <edge id=":B3_4" function="internal">
        <lane id=":B3_4_0" index="0" speed="13.89" length="20.80" shape="189.60,595.20 210.40,595.20"/>
        <lane id=":B3_4_1" index="1" speed="13.89" length="20.80" shape="189.60,598.40 210.40,598.40"/>
    </edge>
    <edge id=":C0_0" function="internal">
        <lane id=":C0_0_0" index="0" speed="6.51" length="9.03" shape="395.20,10.40 394.85,7.95 393.80,6.20 392.05,5.15 389.60,4.80"/>
        <lane id=":C0_0_1" index="1" speed="8.00" length="14.19" shape="398.40,10.40 397.85,6.55 396.20,3.80 393.45,2.15 389.60,1.60"/>
    </edge>
    <edge id=":C0_2" function="internal">
        <lane id=":C0_2_0" index="0" speed="6.51" length="9.03" shape="410.40,4.80 407.95,5.15 406.20,6.20 405.15,7.95 404.80,10.40"/>
        <lane id=":C0_2_1" index="1" speed="7.33" length="11.73" shape="410.40,4.80 406.55,5.15 403.80,6.20 402.15,7.95 401.60,10.40"/>
    </edge>
    <edge id=":C0_4" function="internal">
        <lane id=":C0_4_0" index="0" speed="13.89" length="20.80" shape="410.40,4.80 389.60,4.80"/>
        <lane id=":C0_4_1" index="1" speed="13.89" length="20.80" shape="410.40,1.60 389.60,1.60"/>
    </edge>
    <edge id=":C1_0" function="internal">
        <lane id=":C1_0_0" index="0" speed="6.51" length="9.03" shape="395.20,210.40 394.85,207.95 393.80,206.20 392.05,205.15 389.60,204.80"/>
    </edge>
    <edge id=":C1_1" function="internal">
        <lane id=":C1_1_0" index="0" speed="13.89" length="20.80" shape="395.20,210.40 395.20,189.60"/>
        <lane id=":C1_1_1" index="1" speed="13.89" length="20.80" shape="398.40,210.40 398.40,189.60"/>
    </edge>
    <edge id=":C1_3" function="internal">
        <lane id=":C1_3_0" index="0" speed="6.51" length="9.03" shape="410.40,204.80 407.95,205.15 406.20,206.20 405.15,207.95 404.80,210.40"/>
    </edge>
    <edge id=":C1_4" function="internal">
        <lane id=":C1_4_0" index="0" speed="13.89" length="20.80" shape="410.40,204.80 389.60,204.80"/>
        <lane id=":C1_4_1" index="1" speed="13.89" length="20.80" shape="410.40,201.60 389.60,201.60"/>
    </edge>
    <edge id=":C1_6" function="internal">
        <lane id=":C1_6_0" index="0" speed="6.51" length="9.03" shape="404.80,189.60 405.15,192.05 406.20,193.80 407.95,194.85 410.40,195.20"/>
    </edge>
    <edge id=":C1_7" function="internal">
        <lane id=":C1_7_0" index="0" speed="13.89" length="20.80" shape="404.80,189.60 404.80,210.40"/>
        <lane id=":C1_7_1" index="1" speed="13.89" length="20.80" shape="401.60,189.60 401.60,210.40"/>
    </edge>
    <edge id=":C1_9" function="internal">
        <lane id=":C1_9_0" index="0" speed="6.51" length="9.03" shape="389.60,195.20 392.05,194.85 393.80,193.80 394.85,192.05 395.20,189.60"/>
    </edge>
    <edge id=":C1_10" function="internal">
        <lane id=":C1_10_0" index="0" speed="13.89" length="20.80" shape="389.60,195.20 410.40,195.20"/>
        <lane id=":C1_10_1" index="1" speed="13.89" length="20.80" shape="389.60,198.40 410.40,198.40"/>
    </edge>
    <edge id=":C2_0" function="internal">
        <lane id=":C2_0_0" index="0" speed="6.51" length="9.03" shape="395.20,410.40 394.85,407.95 393.80,406.20 392.05,405.15 389.60,404.80"/>
    </edge>
    <edge id=":C2_1" function="internal">
        <lane id=":C2_1_0" index="0" speed="13.89" length="20.80" shape="395.20,410.40 395.20,389.60"/>
        <lane id=":C2_1_1" index="1" speed="13.89" length="20.80" shape="398.40,410.40 398.40,389.60"/>
    </edge>
    <edge id=":C2_3" function="internal">
        <lane id=":C2_3_0" index="0" speed="6.51" length="9.03" shape="410.40,404.80 407.95,405.15 406.20,406.20 405.15,407.95 404.80,410.40"/>
    </edge>
    <edge id=":C2_4" function="internal">
        <lane id=":C2_4_0" index="0" speed="13.89" length="20.80" shape="410.40,404.80 389.60,404.80"/>
        <lane id=":C2_4_1" index="1" speed="13.89" length="20.80" shape="410.40,401.60 389.60,401.60"/>
    </edge>
    <edge id=":C2_6" function="internal">
        <lane id=":C2_6_0" index="0" speed="6.51" length="9.03" shape="404.80,389.60 405.15,392.05 406.20,393.80 407.95,394.85 410.40,395.20"/>
    </edge>
    <edge id=":C2_7" function="internal">
        <lane id=":C2_7_0" index="0" speed="13.89" length="20.80" shape="404.80,389.60 404.80,410.40"/>
        <lane id=":C2_7_1" index="1" speed="13.89" length="20.80" shape="401.60,389.60 401.60,410.40"/>
    </edge>
    <edge id=":C2_9" function="internal">
        <lane id=":C2_9_0" index="0" speed="6.51" length="9.03" shape="389.60,395.20 392.05,394.85 393.80,393.80 394.85,392.05 395.20,389.60"/>
    </edge>
    <edge id=":C2_10" function="internal">
        <lane id=":C2_10_0" index="0" speed="13.89" length="20.80" shape="389.60,395.20 410.40,395.20"/>
        <lane id=":C2_10_1" index="1" speed="13.89" length="20.80" shape="389.60,398.40 410.40,398.40"/>
    </edge>
    <edge id=":C3_0" function="internal">
        <lane id=":C3_0_0" index="0" speed="6.51" length="9.03" shape="404.80,589.60 405.15,592.05 406.20,593.80 407.95,594.85 410.40,595.20"/>
        <lane id=":C3_0_1" index="1" speed="8.00" length="14.19" shape="401.60,589.60 402.15,593.45 403.80,596.20 406.55,597.85 410.40,598.40"/>
    </edge>
    <edge id=":C3_2" function="internal">
        <lane id=":C3_2_0" index="0" speed="6.51" length="9.03" shape="389.60,595.20 392.05,594.85 393.80,593.80 394.85,592.05 395.20,589.60"/>
        <lane id=":C3_2_1" index="1" speed="7.33" length="11.73" shape="389.60,595.20 393.45,594.85 396.20,593.80 397.85,592.05 398.40,589.60"/>
    </edge>
    <edge id=":C3_4" function="internal">
        <lane id=":C3_4_0" index="0" speed="13.89" length="20.80" shape="389.60,595.20 410.40,595.20"/>
        <lane id=":C3_4_1" index="1" speed="13.89" length="20.80" shape="389.60,598.40 410.40,598.40"/>
    </edge>
    <edge id=":D0_0" function="internal">
        <lane id=":D0_0_0" index="0" speed="3.90" length="2.58" shape="595.20,6.40 595.10,5.70 594.80,5.20 594.30,4.90 593.60,4.80"/>
        <lane id=":D0_0_1" index="1" speed="6.08" length="7.74" shape="598.40,6.40 598.10,4.30 597.20,2.80 595.70,1.90 593.60,1.60"/>
    </edge>
    <edge id=":D1_0" function="internal">
        <lane id=":D1_0_0" index="0" speed="6.51" length="9.03" shape="595.20,210.40 594.85,207.95 593.80,206.20 592.05,205.15 589.60,204.80"/>
        <lane id=":D1_0_1" index="1" speed="7.33" length="11.73" shape="595.20,210.40 594.85,206.55 593.80,203.80 592.05,202.15 589.60,201.60"/>
    </edge>
    <edge id=":D1_2" function="internal">
        <lane id=":D1_2_0" index="0" speed="13.89" length="20.80" shape="595.20,210.40 595.20,189.60"/>
        <lane id=":D1_2_1" index="1" speed="13.89" length="20.80" shape="598.40,210.40 598.40,189.60"/>
    </edge>
    <edge id=":D1_4" function="internal">
        <lane id=":D1_4_0" index="0" speed="6.51" length="9.03" shape="589.60,195.20 592.05,194.85 593.80,193.80 594.85,192.05 595.20,189.60"/>
        <lane id=":D1_4_1" index="1" speed="8.00" length="14.19" shape="589.60,198.40 593.45,197.85 596.20,196.20 597.85,193.45 598.40,189.60"/>
    </edge>
    <edge id=":D2_0" function="internal">
        <lane id=":D2_0_0" index="0" speed="6.51" length="9.03" shape="595.20,410.40 594.85,407.95 593.80,406.20 592.05,405.15 589.60,404.80"/>
        <lane id=":D2_0_1" index="1" speed="7.33" length="11.73" shape="595.20,410.40 594.85,406.55 593.80,403.80 592.05,402.15 589.60,401.60"/>
    </edge>
    <edge id=":D2_2" function="internal">
        <lane id=":D2_2_0" index="0" speed="13.89" length="20.80" shape="595.20,410.40 595.20,389.60"/>
        <lane id=":D2_2_1" index="1" speed="13.89" length="20.80" shape="598.40,410.40 598.40,389.60"/>
    </edge>
    <edge id=":D2_4" function="internal">
        <lane id=":D2_4_0" index="0" speed="6.51" length="9.03" shape="589.60,395.20 592.05,394.85 593.80,393.80 594.85,392.05 595.20,389.60"/>
        <lane id=":D2_4_1" index="1" speed="8.00" length="14.19" shape="589.60,398.40 593.45,397.85 596.20,396.20 597.85,393.45 598.40,389.60"/>
    </edge>
    <edge id=":D3_0" function="internal">
        <lane id=":D3_0_0" index="0" speed="3.90" length="2.58" shape="593.60,595.20 594.30,595.10 594.80,594.80 595.10,594.30 595.20,593.60"/>
        <lane id=":D3_0_1" index="1" speed="6.08" length="7.74" shape="593.60,598.40 595.70,598.10 597.20,597.20 598.10,595.70 598.40,593.60"/>
    </edge>

    <edge id="A0A1" from="A0" to="A1" priority="-1">
        <lane id="A0A1_0" index="0" speed="13.89" length="183.20" shape="4.80,6.40 4.80,189.60"/>
        <lane id="A0A1_1" index="1" speed="13.89" length="183.20" shape="1.60,6.40 1.60,189.60"/>
    </edge>
    <edge id="A1A2" from="A1" to="A2" priority="-1">
        <lane id="A1A2_0" index="0" speed="13.89" length="179.20" shape="4.80,210.40 4.80,389.60"/>
        <lane id="A1A2_1" index="1" speed="13.89" length="179.20" shape="1.60,210.40 1.60,389.60"/>
    </edge>
    <edge id="A1B1" from="A1" to="B1" priority="-1">
        <lane id="A1B1_0" index="0" speed="13.89" length="179.20" shape="10.40,195.20 189.60,195.20"/>
        <lane id="A1B1_1" index="1" speed="13.89" length="179.20" shape="10.40,198.40 189.60,198.40"/>
    </edge>
    <edge id="A2A3" from="A2" to="A3" priority="-1">
        <lane id="A2A3_0" index="0" speed="13.89" length="183.20" shape="4.80,410.40 4.80,593.60"/>
        <lane id="A2A3_1" index="1" speed="13.89" length="183.20" shape="1.60,410.40 1.60,593.60"/>
    </edge>
    <edge id="A2B2" from="A2" to="B2" priority="-1">
        <lane id="A2B2_0" index="0" speed="13.89" length="179.20" shape="10.40,395.20 189.60,395.20"/>
        <lane id="A2B2_1" index="1" speed="13.89" length="179.20" shape="10.40,398.40 189.60,398.40"/>
    </edge>
    <edge id="A3B3" from="A3" to="B3" priority="-1">
        <lane id="A3B3_0" index="0" speed="13.89" length="183.20" shape="6.40,595.20 189.60,595.20"/>
        <lane id="A3B3_1" index="1" speed="13.89" length="183.20" shape="6.40,598.40 189.60,598.40"/>
    </edge>
    <edge id="B0A0" from="B0" to="A0" priority="-1">
        <lane id="B0A0_0" index="0" speed="13.89" length="183.20" shape="189.60,4.80 6.40,4.80"/>
        <lane id="B0A0_1" index="1" speed="13.89" length="183.20" shape="189.60,1.60 6.40,1.60"/>
    </edge>
    <edge id="B0B1" from="B0" to="B1" priority="-1">
        <lane id="B0B1_0" index="0" speed="13.89" length="179.20" shape="204.80,10.40 204.80,189.60"/>
        <lane id="B0B1_1" index="1" speed="13.89" length="179.20" shape="201.60,10.40 201.60,189.60"/>
    </edge>
    <edge id="B1A1" from="B1" to="A1" priority="-1">
        <lane id="B1A1_0" index="0" speed="13.89" length="179.20" shape="189.60,204.80 10.40,204.80"/>
        <lane id="B1A1_1" index="1" speed="13.89" length="179.20" shape="189.60,201.60 10.40,201.60"/>
    </edge>
    <edge id="B1B0" from="B1" to="B0" priority="-1">
        <lane id="B1B0_0" index="0" speed="13.89" length="179.20" shape="195.20,189.60 195.20,10.40"/>
        <lane id="B1B0_1" index="1" speed="13.89" length="179.20" shape="198.40,189.60 198.40,10.40"/>
    </edge>
    <edge id="B1B2" from="B1" to="B2" priority="-1">
        <lane id="B1B2_0" index="0" speed="13.89" length="179.20" shape="204.80,210.40 204.80,389.60"/>
        <lane id="B1B2_1" index="1" speed="13.89" length="179.20" shape="201.60,210.40 201.60,389.60"/>
    </edge>
    <edge id="B1C1" from="B1" to="C1" priority="-1">
        <lane id="B1C1_0" index="0" speed="13.89" length="179.20" shape="210.40,195.20 389.60,195.20"/>
        <lane id="B1C1_1" index="1" speed="13.89" length="179.20" shape="210.40,198.40 389.60,198.40"/>
    </edge>
    <edge id="B2A2" from="B2" to="A2" priority="-1">
        <lane id="B2A2_0" index="0" speed="13.89" length="179.20" shape="189.60,404.80 10.40,404.80"/>
        <lane id="B2A2_1" index="1" speed="13.89" length="179.20" shape="189.60,401.60 10.40,401.60"/>
    </edge>
    <edge id="B2B1" from="B2" to="B1" priority="-1">
        <lane id="B2B1_0" index="0" speed="13.89" length="179.20" shape="195.20,389.60 195.20,210.40"/>
        <lane id="B2B1_1" index="1" speed="13.89" length="179.20" shape="198.40,389.60 198.40,210.40"/>
    </edge>
    <edge id="B2B3" from="B2" to="B3" priority="-1">
        <lane id="B2B3_0" index="0" speed="13.89" length="179.20" shape="204.80,410.40 204.80,589.60"/>
        <lane id="B2B3_1" index="1" speed="13.89" length="179.20" shape="201.60,410.40 201.60,589.60"/>
    </edge>
    <edge id="B2C2" from="B2" to="C2" priority="-1">
        <lane id="B2C2_0" index="0" speed="13.89" length="179.20" shape="210.40,395.20 389.60,395.20"/>
        <lane id="B2C2_1" index="1" speed="13.89" length="179.20" shape="210.40,398.40 389.60,398.40"/>
    </edge>
    <edge id="B3B2" from="B3" to="B2" priority="-1">
        <lane id="B3B2_0" index="0" speed="13.89" length="179.20" shape="195.20,589.60 195.20,410.40"/>
        <lane id="B3B2_1" index="1" speed="13.89" length="179.20" shape="198.40,589.60 198.40,410.40"/>
    </edge>
    <edge id="B3C3" from="B3" to="C3" priority="-1">
        <lane id="B3C3_0" index="0" speed="13.89" length="179.20" shape="210.40,595.20 389.60,595.20"/>
        <lane id="B3C3_1" index="1" speed="13.89" length="179.20" shape="210.40,598.40 389.60,598.40"/>
    </edge>
    <edge id="C0B0" from="C0" to="B0" priority="-1">
        <lane id="C0B0_0" index="0" speed="13.89" length="179.20" shape="389.60,4.80 210.40,4.80"/>
        <lane id="C0B0_1" index="1" speed="13.89" length="179.20" shape="389.60,1.60 210.40,1.60"/>
    </edge>
    <edge id="C0C1" from="C0" to="C1" priority="-1">
        <lane id="C0C1_0" index="0" speed="13.89" length="179.20" shape="404.80,10.40 404.80,189.60"/>
        <lane id="C0C1_1" index="1" speed="13.89" length="179.20" shape="401.60,10.40 401.60,189.60"/>
    </edge>
    <edge id="C1B1" from="C1" to="B1" priority="-1">
        <lane id="C1B1_0" index="0" speed="13.89" length="179.20" shape="389.60,204.80 210.40,204.80"/>
        <lane id="C1B1_1" index="1" speed="13.89" length="179.20" shape="389.60,201.60 210.40,201.60"/>
    </edge>
    <edge id="C1C0" from="C1" to="C0" priority="-1">
        <lane id="C1C0_0" index="0" speed="13.89" length="179.20" shape="395.20,189.60 395.20,10.40"/>
        <lane id="C1C0_1" index="1" speed="13.89" length="179.20" shape="398.40,189.60 398.40,10.40"/>
    </edge>
    <edge id="C1C2" from="C1" to="C2" priority="-1">
        <lane id="C1C2_0" index="0" speed="13.89" length="179.20" shape="404.80,210.40 404.80,389.60"/>
        <lane id="C1C2_1" index="1" speed="13.89" length="179.20" shape="401.60,210.40 401.60,389.60"/>
    </edge>
    <edge id="C1D1" from="C1" to="D1" priority="-1">
        <lane id="C1D1_0" index="0" speed="13.89" length="179.20" shape="410.40,195.20 589.60,195.20"/>
        <lane id="C1D1_1" index="1" speed="13.89" length="179.20" shape="410.40,198.40 589.60,198.40"/>
    </edge>
    <edge id="C2B2" from="C2" to="B2" priority="-1">
        <lane id="C2B2_0" index="0" speed="13.89" length="179.20" shape="389.60,404.80 210.40,404.80"/>
        <lane id="C2B2_1" index="1" speed="13.89" length="179.20" shape="389.60,401.60 210.40,401.60"/>
    </edge>
    <edge id="C2C1" from="C2" to="C1" priority="-1">
        <lane id="C2C1_0" index="0" speed="13.89" length="179.20" shape="395.20,389.60 395.20,210.40"/>
        <lane id="C2C1_1" index="1" speed="13.89" length="179.20" shape="398.40,389.60 398.40,210.40"/>
    </edge>
    <edge id="C2C3" from="C2" to="C3" priority="-1">
        <lane id="C2C3_0" index="0" speed="13.89" length="179.20" shape="404.80,410.40 404.80,589.60"/>
        <lane id="C2C3_1" index="1" speed="13.89" length="179.20" shape="401.60,410.40 401.60,589.60"/>
    </edge>
    <edge id="C2D2" from="C2" to="D2" priority="-1">
        <lane id="C2D2_0" index="0" speed="13.89" length="179.20" shape="410.40,395.20 589.60,395.20"/>
        <lane id="C2D2_1" index="1" speed="13.89" length="179.20" shape="410.40,398.40 589.60,398.40"/>
    </edge>
    <edge id="C3C2" from="C3" to="C2" priority="-1">
        <lane id="C3C2_0" index="0" speed="13.89" length="179.20" shape="395.20,589.60 395.20,410.40"/>
        <lane id="C3C2_1" index="1" speed="13.89" length="179.20" shape="398.40,589.60 398.40,410.40"/>
    </edge>
    <edge id="C3D3" from="C3" to="D3" priority="-1">
        <lane id="C3D3_0" index="0" speed="13.89" length="183.20" shape="410.40,595.20 593.60,595.20"/>
        <lane id="C3D3_1" index="1" speed="13.89" length="183.20" shape="410.40,598.40 593.60,598.40"/>
    </edge>
    <edge id="D0C0" from="D0" to="C0" priority="-1">
        <lane id="D0C0_0" index="0" speed="13.89" length="183.20" shape="593.60,4.80 410.40,4.80"/>
        <lane id="D0C0_1" index="1" speed="13.89" length="183.20" shape="593.60,1.60 410.40,1.60"/>
    </edge>
    <edge id="D1C1" from="D1" to="C1" priority="-1">
        <lane id="D1C1_0" index="0" speed="13.89" length="179.20" shape="589.60,204.80 410.40,204.80"/>
        <lane id="D1C1_1" index="1" speed="13.89" length="179.20" shape="589.60,201.60 410.40,201.60"/>
    </edge>
    <edge id="D1D0" from="D1" to="D0" priority="-1">
        <lane id="D1D0_0" index="0" speed="13.89" length="183.20" shape="595.20,189.60 595.20,6.40"/>
        <lane id="D1D0_1" index="1" speed="13.89" length="183.20" shape="598.40,189.60 598.40,6.40"/>
    </edge>
    <edge id="D2C2" from="D2" to="C2" priority="-1">
        <lane id="D2C2_0" index="0" speed="13.89" length="179.20" shape="589.60,404.80 410.40,404.80"/>
        <lane id="D2C2_1" index="1" speed="13.89" length="179.20" shape="589.60,401.60 410.40,401.60"/>
    </edge>
    <edge id="D2D1" from="D2" to="D1" priority="-1">
        <lane id="D2D1_0" index="0" speed="13.89" length="179.20" shape="595.20,389.60 595.20,210.40"/>
        <lane id="D2D1_1" index="1" speed="13.89" length="179.20" shape="598.40,389.60 598.40,210.40"/>
    </edge>
    <edge id="D3D2" from="D3" to="D2" priority="-1">
        <lane id="D3D2_0" index="0" speed="13.89" length="183.20" shape="595.20,593.60 595.20,410.40"/>
        <lane id="D3D2_1" index="1" speed="13.89" length="183.20" shape="598.40,593.60 598.40,410.40"/>
    </edge>

    <tlLogic id="A0" type="static" programID="0" offset="0">
        <phase duration="82" state="GG"/>
        <phase duration="3"  state="yy"/>
        <phase duration="5"  state="rr"/>
    </tlLogic>
    <tlLogic id="A1" type="static" programID="0" offset="0">
        <phase duration="42" state="GGrrrr"/>
        <phase duration="3"  state="yyrrrr"/>
        <phase duration="42" state="rrGGGG"/>
        <phase duration="3"  state="rryyyy"/>
    </tlLogic>
    <tlLogic id="A2" type="static" programID="0" offset="0">
        <phase duration="42" state="GGrrrr"/>
        <phase duration="3"  state="yyrrrr"/>
        <phase duration="42" state="rrGGGG"/>
        <phase duration="3"  state="rryyyy"/>
    </tlLogic>
    <tlLogic id="A3" type="static" programID="0" offset="0">
        <phase duration="82" state="GG"/>
        <phase duration="3"  state="yy"/>
        <phase duration="5"  state="rr"/>
    </tlLogic>
    <tlLogic id="B0" type="static" programID="0" offset="0">
        <phase duration="42" state="GGrrrr"/>
        <phase duration="3"  state="yyrrrr"/>
        <phase duration="42" state="rrGGGG"/>
        <phase duration="3"  state="rryyyy"/>
    </tlLogic>
    <tlLogic id="B1" type="static" programID="0" offset="0">
        <phase duration="42" state="GGGrrrGGGrrr"/>
        <phase duration="3"  state="yyyrrryyyrrr"/>
        <phase duration="42" state="rrrGGGrrrGGG"/>
        <phase duration="3"  state="rrryyyrrryyy"/>
    </tlLogic>
    <tlLogic id="B2" type="static" programID="0" offset="0">
        <phase duration="42" state="GGGrrrGGGrrr"/>
        <phase duration="3"  state="yyyrrryyyrrr"/>
        <phase duration="42" state="rrrGGGrrrGGG"/>
        <phase duration="3"  state="rrryyyrrryyy"/>
    </tlLogic>
    <tlLogic id="B3" type="static" programID="0" offset="0">
        <phase duration="42" state="GGrrrr"/>
        <phase duration="3"  state="yyrrrr"/>
        <phase duration="42" state="rrGGGG"/>
        <phase duration="3"  state="rryyyy"/>
        <param key="barrier2Phases" value="2,6"/>
        <param key="barrierPhases" value="4,8"/>
        <param key="ring1" value="0,2,0,4"/>
        <param key="ring2" value="0,6,0,8"/>
    </tlLogic>
    <tlLogic id="C0" type="static" programID="0" offset="0">
        <phase duration="42" state="GGrrrr"/>
        <phase duration="3"  state="yyrrrr"/>
        <phase duration="42" state="rrGGGG"/>
        <phase duration="3"  state="rryyyy"/>
    </tlLogic>
    <tlLogic id="C1" type="static" programID="0" offset="0">
        <phase duration="42" state="GGGrrrGGGrrr"/>
        <phase duration="3"  state="yyyrrryyyrrr"/>
        <phase duration="42" state="rrrGGGrrrGGG"/>
        <phase duration="3"  state="rrryyyrrryyy"/>
    </tlLogic>
    <tlLogic id="C2" type="static" programID="0" offset="0">
        <phase duration="42" state="GGGrrrGGGrrr"/>