<?xml version="1.0" encoding="UTF-8"?>

<!-- generated on 2024-06-05 08:21:09 by Eclipse SUMO netgenerate Version 1.19.0
<configuration xmlns:xsi="http://www.w3.org/2001/XMLSchema-instance" xsi:noNamespaceSchemaLocation="http://sumo.dlr.de/xsd/netgenerateConfiguration.xsd">

    <grid_network>
        <grid value="true"/>
        <grid.number value="4"/>
        <grid.length value="300"/>
        <grid.attach-length value="200"/>
    </grid_network>

    <output>
        <output-file value="data/road.net.xml"/>
    </output>

    <building_defaults>
        <default.lanenumber value="3"/>
        <default-junction-type value="traffic_light"/>
    </building_defaults>

    <junctions>
        <no-turnarounds value="true"/>
        <no-left-connections value="true"/>
    </junctions>

</configuration>
-->

<net version="1.16" junctionCornerDetail="5" limitTurnSpeed="5.50" xmlns:xsi="http://www.w3.org/2001/XMLSchema-instance" xsi:noNamespaceSchemaLocation="http://sumo.dlr.de/xsd/net_file.xsd">

    <location netOffset="0.00,0.00" convBoundary="0.00,0.00,1300.00,1300.00" origBoundary="0.00,0.00,1300.00,1300.00" projParameter="!"/>

    <edge id=":A0_0" function="internal">
        <lane id=":A0_0_0" index="0" speed="6.51" length="9.03" shape="192.00,213.60 191.65,211.15 190.60,209.40 188.85,208.35 186.40,208.00"/>
    </edge>
    <edge id=":A0_1" function="internal">
        <lane id=":A0_1_0" index="0" speed="13.89" length="27.20" shape="192.00,213.60 192.00,186.40"/>
        <lane id=":A0_1_1" index="1" speed="13.89" length="27.20" shape="195.20,213.60 195.20,186.40"/>
        <lane id=":A0_1_2" index="2" speed="13.89" length="27.20" shape="198.40,213.60 198.40,186.40"/>
    </edge>
    <edge id=":A0_4" function="internal">
        <lane id=":A0_4_0" index="0" speed="6.51" length="9.03" shape="213.60,208.00 211.15,208.35 209.40,209.40 208.35,211.15 208.00,213.60"/>
    </edge>
    <edge id=":A0_5" function="internal">
        <lane id=":A0_5_0" index="0" speed="13.89" length="27.20" shape="213.60,208.00 186.40,208.00"/>
        <lane id=":A0_5_1" index="1" speed="13.89" length="27.20" shape="213.60,204.80 186.40,204.80"/>
        <lane id=":A0_5_2" index="2" speed="13.89" length="27.20" shape="213.60,201.60 186.40,201.60"/>
    </edge>
    <edge id=":A0_8" function="internal">
        <lane id=":A0_8_0" index="0" speed="6.51" length="9.03" shape="208.00,186.40 208.35,188.85 209.40,190.60 211.15,191.65 213.60,192.00"/>
    </edge>
    <edge id=":A0_9" function="internal">
        <lane id=":A0_9_0" index="0" speed="13.89" length="27.20" shape="208.00,186.40 208.00,213.60"/>
        <lane id=":A0_9_1" index="1" speed="13.89" length="27.20" shape="204.80,186.40 204.80,213.60"/>
        <lane id=":A0_9_2" index="2" speed="13.89" length="27.20" shape="201.60,186.40 201.60,213.60"/>
    </edge>
    <edge id=":A0_12" function="internal">
        <lane id=":A0_12_0" index="0" speed="6.51" length="9.03" shape="186.40,192.00 188.85,191.65 190.60,190.60 191.65,188.85 192.00,186.40"/>
    </edge>
    <edge id=":A0_13" function="internal">
        <lane id=":A0_13_0" index="0" speed="13.89" length="27.20" shape="186.40,192.00 213.60,192.00"/>
        <lane id=":A0_13_1" index="1" speed="13.89" length="27.20" shape="186.40,195.20 213.60,195.20"/>
        <lane id=":A0_13_2" index="2" speed="13.89" length="27.20" shape="186.40,198.40 213.60,198.40"/>
    </edge>
    <edge id=":A1_0" function="internal">
        <lane id=":A1_0_0" index="0" speed="6.51" length="9.03" shape="192.00,513.60 191.65,511.15 190.60,509.40 188.85,508.35 186.40,508.00"/>
    </edge>
    <edge id=":A1_1" function="internal">
        <lane id=":A1_1_0" index="0" speed="13.89" length="27.20" shape="192.00,513.60 192.00,486.40"/>
        <lane id=":A1_1_1" index="1" speed="13.89" length="27.20" shape="195.20,513.60 195.20,486.40"/>
        <lane id=":A1_1_2" index="2" speed="13.89" length="27.20" shape="198.40,513.60 198.40,486.40"/>
    </edge>
    <edge id=":A1_4" function="internal">
        <lane id=":A1_4_0" index="0" speed="6.51" length="9.03" shape="213.60,508.00 211.15,508.35 209.40,509.40 208.35,511.15 208.00,513.60"/>
    </edge>
    <edge id=":A1_5" function="internal">
        <lane id=":A1_5_0" index="0" speed="13.89" length="27.20" shape="213.60,508.00 186.40,508.00"/>
        <lane id=":A1_5_1" index="1" speed="13.89" length="27.20" shape="213.60,504.80 186.40,504.80"/>
        <lane id=":A1_5_2" index="2" speed="13.89" length="27.20" shape="213.60,501.60 186.40,501.60"/>
    </edge>
    <edge id=":A1_8" function="internal">
        <lane id=":A1_8_0" index="0" speed="6.51" length="9.03" shape="208.00,486.40 208.35,488.85 209.40,490.60 211.15,491.65 213.60,492.00"/>
    </edge>
    <edge id=":A1_9" function="internal">
        <lane id=":A1_9_0" index="0" speed="13.89" length="27.20" shape="208.00,486.40 208.00,513.60"/>
        <lane id=":A1_9_1" index="1" speed="13.89" length="27.20" shape="204.80,486.40 204.80,513.60"/>
        <lane id=":A1_9_2" index="2" speed="13.89" length="27.20" shape="201.60,486.40 201.60,513.60"/>
    </edge>
    <edge id=":A1_12" function="internal">
        <lane id=":A1_12_0" index="0" speed="6.51" length="9.03" shape="186.40,492.00 188.85,491.65 190.60,490.60 191.65,488.85 192.00,486.40"/>
    </edge>
    <edge id=":A1_13" function="internal">
        <lane id=":A1_13_0" index="0" speed="13.89" length="27.20" shape="186.40,492.00 213.60,492.00"/>
        <lane id=":A1_13_1" index="1" speed="13.89" length="27.20" shape="186.40,495.20 213.60,495.20"/>
        <lane id=":A1_13_2" index="2" speed="13.89" length="27.20" shape="186.40,498.40 213.60,498.40"/>
    </edge>
    <edge id=":A2_0" function="internal">
        <lane id=":A2_0_0" index="0" speed="6.51" length="9.03" shape="192.00,813.60 191.65,811.15 190.60,809.40 188.85,808.35 186.40,808.00"/>
    </edge>
    <edge id=":A2_1" function="internal">
        <lane id=":A2_1_0" index="0" speed="13.89" length="27.20" shape="192.00,813.60 192.00,786.40"/>
        <lane id=":A2_1_1" index="1" speed="13.89" length="27.20" shape="195.20,813.60 195.20,786.40"/>
        <lane id=":A2_1_2" index="2" speed="13.89" length="27.20" shape="198.40,813.60 198.40,786.40"/>
    </edge>
    <edge id=":A2_4" function="internal">
        <lane id=":A2_4_0" index="0" speed="6.51" length="9.03" shape="213.60,808.00 211.15,808.35 209.40,809.40 208.35,811.15 208.00,813.60"/>
    </edge>
    <edge id=":A2_5" function="internal">
        <lane id=":A2_5_0" index="0" speed="13.89" length="27.20" shape="213.60,808.00 186.40,808.00"/>
        <lane id=":A2_5_1" index="1" speed="13.89" length="27.20" shape="213.60,804.80 186.40,804.80"/>
        <lane id=":A2_5_2" index="2" speed="13.89" length="27.20" shape="213.60,801.60 186.40,801.60"/>
    </edge>
    <edge id=":A2_8" function="internal">
        <lane id=":A2_8_0" index="0" speed="6.51" length="9.03" shape="208.00,786.40 208.35,788.85 209.40,790.60 211.15,791.65 213.60,792.00"/>
    </edge>
    <edge id=":A2_9" function="internal">
        <lane id=":A2_9_0" index="0" speed="13.89" length="27.20" shape="208.00,786.40 208.00,813.60"/>
        <lane id=":A2_9_1" index="1" speed="13.89" length="27.20" shape="204.80,786.40 204.80,813.60"/>
        <lane id=":A2_9_2" index="2" speed="13.89" length="27.20" shape="201.60,786.40 201.60,813.60"/>
    </edge>
    <edge id=":A2_12" function="internal">
        <lane id=":A2_12_0" index="0" speed="6.51" length="9.03" shape="186.40,792.00 188.85,791.65 190.60,790.60 191.65,788.85 192.00,786.40"/>
    </edge>
    <edge id=":A2_13" function="internal">
        <lane id=":A2_13_0" index="0" speed="13.89" length="27.20" shape="186.40,792.00 213.60,792.00"/>
        <lane id=":A2_13_1" index="1" speed="13.89" length="27.20" shape="186.40,795.20 213.60,795.20"/>
        <lane id=":A2_13_2" index="2" speed="13.89" length="27.20" shape="186.40,798.40 213.60,798.40"/>
    </edge>
    <edge id=":A3_0" function="internal">
        <lane id=":A3_0_0" index="0" speed="6.51" length="9.03" shape="192.00,1113.60 191.65,1111.15 190.60,1109.40 188.85,1108.35 186.40,1108.00"/>
    </edge>
    <edge id=":A3_1" function="internal">
        <lane id=":A3_1_0" index="0" speed="13.89" length="27.20" shape="192.00,1113.60 192.00,1086.40"/>
        <lane id=":A3_1_1" index="1" speed="13.89" length="27.20" shape="195.20,1113.60 195.20,1086.40"/>
        <lane id=":A3_1_2" index="2" speed="13.89" length="27.20" shape="198.40,1113.60 198.40,1086.40"/>
    </edge>
    <edge id=":A3_4" function="internal">
        <lane id=":A3_4_0" index="0" speed="6.51" length="9.03" shape="213.60,1108.00 211.15,1108.35 209.40,1109.40 208.35,1111.15 208.00,1113.60"/>
    </edge>
    <edge id=":A3_5" function="internal">
        <lane id=":A3_5_0" index="0" speed="13.89" length="27.20" shape="213.60,1108.00 186.40,1108.00"/>
        <lane id=":A3_5_1" index="1" speed="13.89" length="27.20" shape="213.60,1104.80 186.40,1104.80"/>
        <lane id=":A3_5_2" index="2" speed="13.89" length="27.20" shape="213.60,1101.60 186.40,1101.60"/>
    </edge>
    <edge id=":A3_8" function="internal">
        <lane id=":A3_8_0" index="0" speed="6.51" length="9.03" shape="208.00,1086.40 208.35,1088.85 209.40,1090.60 211.15,1091.65 213.60,1092.00"/>
    </edge>
    <edge id=":A3_9" function="internal">
        <lane id=":A3_9_0" index="0" speed="13.89" length="27.20" shape="208.00,1086.40 208.00,1113.60"/>
        <lane id=":A3_9_1" index="1" speed="13.89" length="27.20" shape="204.80,1086.40 204.80,1113.60"/>
        <lane id=":A3_9_2" index="2" speed="13.89" length="27.20" shape="201.60,1086.40 201.60,1113.60"/>
    </edge>
    <edge id=":A3_12" function="internal">
        <lane id=":A3_12_0" index="0" speed="6.51" length="9.03" shape="186.40,1092.00 188.85,1091.65 190.60,1090.60 191.65,1088.85 192.00,1086.40"/>
    </edge>
    <edge id=":A3_13" function="internal">
        <lane id=":A3_13_0" index="0" speed="13.89" length="27.20" shape="186.40,1092.00 213.60,1092.00"/>
        <lane id=":A3_13_1" index="1" speed="13.89" length="27.20" shape="186.40,1095.20 213.60,1095.20"/>
        <lane id=":A3_13_2" index="2" speed="13.89" length="27.20" shape="186.40,1098.40 213.60,1098.40"/>
    </edge>
    <edge id=":B0_0" function="internal">
        <lane id=":B0_0_0" index="0" speed="6.51" length="9.03" shape="492.00,213.60 491.65,211.15 490.60,209.40 488.85,208.35 486.40,208.00"/>
    </edge>
    <edge id=":B0_1" function="internal">
        <lane id=":B0_1_0" index="0" speed="13.89" length="27.20" shape="492.00,213.60 492.00,186.40"/>
        <lane id=":B0_1_1" index="1" speed="13.89" length="27.20" shape="495.20,213.60 495.20,186.40"/>
        <lane id=":B0_1_2" index="2" speed="13.89" length="27.20" shape="498.40,213.60 498.40,186.40"/>
    </edge>
    <edge id=":B0_4" function="internal">
        <lane id=":B0_4_0" index="0" speed="6.51" length="9.03" shape="513.60,208.00 511.15,208.35 509.40,209.40 508.35,211.15 508.00,213.60"/>
    </edge>
    <edge id=":B0_5" function="internal">
        <lane id=":B0_5_0" index="0" speed="13.89" length="27.20" shape="513.60,208.00 486.40,208.00"/>
        <lane id=":B0_5_1" index="1" speed="13.89" length="27.20" shape="513.60,204.80 486.40,204.80"/>
        <lane id=":B0_5_2" index="2" speed="13.89" length="27.20" shape="513.60,201.60 486.40,201.60"/>
    </edge>
    <edge id=":B0_8" function="internal">
        <lane id=":B0_8_0" index="0" speed="6.51" length="9.03" shape="508.00,186.40 508.35,188.85 509.40,190.60 511.15,191.65 513.60,192.00"/>
    </edge>
    <edge id=":B0_9" function="internal">
        <lane id=":B0_9_0" index="0" speed="13.89" length="27.20" shape="508.00,186.40 508.00,213.60"/>
        <lane id=":B0_9_1" index="1" speed="13.89" length="27.20" shape="504.80,186.40 504.80,213.60"/>
        <lane id=":B0_9_2" index="2" speed="13.89" length="27.20" shape="501.60,186.40 501.60,213.60"/>
    </edge>
    <edge id=":B0_12" function="internal">
        <lane id=":B0_12_0" index="0" speed="6.51" length="9.03" shape="486.40,192.00 488.85,191.65 490.60,190.60 491.65,188.85 492.00,186.40"/>
    </edge>
    <edge id=":B0_13" function="internal">
        <lane id=":B0_13_0" index="0" speed="13.89" length="27.20" shape="486.40,192.00 513.60,192.00"/>
        <lane id=":B0_13_1" index="1" speed="13.89" length="27.20" shape="486.40,195.20 513.60,195.20"/>
        <lane id=":B0_13_2" index="2" speed="13.89" length="27.20" shape="486.40,198.40 513.60,198.40"/>
    </edge>
    <edge id=":B1_0" function="internal">
        <lane id=":B1_0_0" index="0" speed="6.51" length="9.03" shape="492.00,513.60 491.65,511.15 490.60,509.40 488.85,508.35 486.40,508.00"/>
    </edge>
    <edge id=":B1_1" function="internal">
        <lane id=":B1_1_0" index="0" speed="13.89" length="27.20" shape="492.00,513.60 492.00,486.40"/>
        <lane id=":B1_1_1" index="1" speed="13.89" length="27.20" shape="495.20,513.60 495.20,486.40"/>
        <lane id=":B1_1_2" index="2" speed="13.89" length="27.20" shape="498.40,513.60 498.40,486.40"/>
    </edge>
    <edge id=":B1_4" function="internal">
        <lane id=":B1_4_0" index="0" speed="6.51" length="9.03" shape="513.60,508.00 511.15,508.35 509.40,509.40 508.35,511.15 508.00,513.60"/>
    </edge>
    <edge id=":B1_5" function="internal">
        <lane id=":B1_5_0" index="0" speed="13.89" length="27.20" shape="513.60,508.00 486.40,508.00"/>
        <lane id=":B1_5_1" index="1" speed="13.89" length="27.20" shape="513.60,504.80 486.40,504.80"/>
        <lane id=":B1_5_2" index="2" speed="13.89" length="27.20" shape="513.60,501.60 486.40,501.60"/>
    </edge>
    <edge id=":B1_8" function="internal">
        <lane id=":B1_8_0" index="0" speed="6.51" length="9.03" shape="508.00,486.40 508.35,488.85 509.40,490.60 511.15,491.65 513.60,492.00"/>
    </edge>
    <edge id=":B1_9" function="internal">
        <lane id=":B1_9_0" index="0" speed="13.89" length="27.20" shape="508.00,486.40 508.00,513.60"/>
        <lane id=":B1_9_1" index="1" speed="13.89" length="27.20" shape="504.80,486.40 504.80,513.60"/>
        <lane id=":B1_9_2" index="2" speed="13.89" length="27.20" shape="501.60,486.40 501.60,513.60"/>
    </edge>
    <edge id=":B1_12" function="internal">
        <lane id=":B1_12_0" index="0" speed="6.51" length="9.03" shape="486.40,492.00 488.85,491.65 490.60,490.60 491.65,488.85 492.00,486.40"/>
    </edge>
    <edge id=":B1_13" function="internal">
        <lane id=":B1_13_0" index="0" speed="13.89" length="27.20" shape="486.40,492.00 513.60,492.00"/>
        <lane id=":B1_13_1" index="1" speed="13.89" length="27.20" shape="486.40,495.20 513.60,495.20"/>
        <lane id=":B1_13_2" index="2" speed="13.89" length="27.20" shape="486.40,498.40 513.60,498.40"/>
    </edge>
    <edge id=":B2_0" function="internal">
        <lane id=":B2_0_0" index="0" speed="6.51" length="9.03" shape="492.00,813.60 491.65,811.15 490.60,809.40 488.85,808.35 486.40,808.00"/>
    </edge>
    <edge id=":B2_1" function="internal">
        <lane id=":B2_1_0" index="0" speed="13.89" length="27.20" shape="492.00,813.60 492.00,786.40"/>
        <lane id=":B2_1_1" index="1" speed="13.89" length="27.20" shape="495.20,813.60 495.20,786.40"/>
        <lane id=":B2_1_2" index="2" speed="13.89" length="27.20" shape="498.40,813.60 498.40,786.40"/>
    </edge>
    <edge id=":B2_4" function="internal">
        <lane id=":B2_4_0" index="0" speed="6.51" length="9.03" shape="513.60,808.00 511.15,808.35 509.40,809.40 508.35,811.15 508.00,813.60"/>
    </edge>
    <edge id=":B2_5" function="internal">
        <lane id=":B2_5_0" index="0" speed="13.89" length="27.20" shape="513.60,808.00 486.40,808.00"/>
        <lane id=":B2_5_1" index="1" speed="13.89" length="27.20" shape="513.60,804.80 486.40,804.80"/>
        <lane id=":B2_5_2" index="2" speed="13.89" length="27.20" shape="513.60,801.60 486.40,801.60"/>
    </edge>
    <edge id=":B2_8" function="internal">
        <lane id=":B2_8_0" index="0" speed="6.51" length="9.03" shape="508.00,786.40 508.35,788.85 509.40,790.60 511.15,791.65 513.60,792.00"/>
    </edge>
    <edge id=":B2_9" function="internal">
        <lane id=":B2_9_0" index="0" speed="13.89" length="27.20" shape="508.00,786.40 508.00,813.60"/>
        <lane id=":B2_9_1" index="1" speed="13.89" length="27.20" shape="504.80,786.40 504.80,813.60"/>
        <lane id=":B2_9_2" index="2" speed="13.89" length="27.20" shape="501.60,786.40 501.60,813.60"/>
    </edge>
    <edge id=":B2_12" function="internal">
        <lane id=":B2_12_0" index="0" speed="6.51" length="9.03" shape="486.40,792.00 488.85,791.65 490.60,790.60 491.65,788.85 492.00,786.40"/>
    </edge>
    <edge id=":B2_13" function="internal">
        <lane id=":B2_13_0" index="0" speed="13.89" length="27.20" shape="486.40,792.00 513.60,792.00"/>
        <lane id=":B2_13_1" index="1" speed="13.89" length="27.20" shape="486.40,795.20 513.60,795.20"/>
        <lane id=":B2_13_2" index="2" speed="13.89" length="27.20" shape="486.40,798.40 513.60,798.40"/>
    </edge>
    <edge id=":B3_0" function="internal">
        <lane id=":B3_0_0" index="0" speed="6.51" length="9.03" shape="492.00,1113.60 491.65,1111.15 490.60,1109.40 488.85,1108.35 486.40,1108.00"/>
    </edge>
    <edge id=":B3_1" function="internal">
        <lane id=":B3_1_0" index="0" speed="13.89" length="27.20" shape="492.00,1113.60 492.00,1086.40"/>
        <lane id=":B3_1_1" index="1" speed="13.89" length="27.20" shape="495.20,1113.60 495.20,1086.40"/>
        <lane id=":B3_1_2" index="2" speed="13.89" length="27.20" shape="498.40,1113.60 498.40,1086.40"/>
    </edge>
    <edge id=":B3_4" function="internal">
        <lane id=":B3_4_0" index="0" speed="6.51" length="9.03" shape="513.60,1108.00 511.15,1108.35 509.40,1109.40 508.35,1111.15 508.00,1113.60"/>
    </edge>
    <edge id=":B3_5" function="internal">
        <lane id=":B3_5_0" index="0" speed="13.89" length="27.20" shape="513.60,1108.00 486.40,1108.00"/>
        <lane id=":B3_5_1" index="1" speed="13.89" length="27.20" shape="513.60,1104.80 486.40,1104.80"/>
        <lane id=":B3_5_2" index="2" speed="13.89" length="27.20" shape="513.60,1101.60 486.40,1101.60"/>
    </edge>
    <edge id=":B3_8" function="internal">
        <lane id=":B3_8_0" index="0" speed="6.51" length="9.03" shape="508.00,1086.40 508.35,1088.85 509.40,1090.60 511.15,1091.65 513.60,1092.00"/>
    </edge>
    <edge id=":B3_9" function="internal">
        <lane id=":B3_9_0" index="0" speed="13.89" length="27.20" shape="508.00,1086.40 508.00,1113.60"/>
        <lane id=":B3_9_1" index="1" speed="13.89" length="27.20" shape="504.80,1086.40 504.80,1113.60"/>
        <lane id=":B3_9_2" index="2" speed="13.89" length="27.20" shape="501.60,1086.40 501.60,1113.60"/>
    </edge>
    <edge id=":B3_12" function="internal">
        <lane id=":B3_12_0" index="0" speed="6.51" length="9.03" shape="486.40,1092.00 488.85,1091.65 490.60,1090.60 491.65,1088.85 492.00,1086.40"/>
    </edge>
    <edge id=":B3_13" function="internal">
        <lane id=":B3_13_0" index="0" speed="13.89" length="27.20" shape="486.40,1092.00 513.60,1092.00"/>
        <lane id=":B3_13_1" index="1" speed="13.89" length="27.20" shape="486.40,1095.20 513.60,1095.20"/>
        <lane id=":B3_13_2" index="2" speed="13.89" length="27.20" shape="486.40,1098.40 513.60,1098.40"/>
    </edge>
    <edge id=":C0_0" function="internal">
        <lane id=":C0_0_0" index="0" speed="6.51" length="9.03" shape="792.00,213.60 791.65,211.15 790.60,209.40 788.85,208.35 786.40,208.00"/>
    </edge>
    <edge id=":C0_1" function="internal">
        <lane id=":C0_1_0" index="0" speed="13.89" length="27.20" shape="792.00,213.60 792.00,186.40"/>
        <lane id=":C0_1_1" index="1" speed="13.89" length="27.20" shape="795.20,213.60 795.20,186.40"/>
        <lane id=":C0_1_2" index="2" speed="13.89" length="27.20" shape="798.40,213.60 798.40,186.40"/>
    </edge>
    <edge id=":C0_4" function="internal">
        <lane id=":C0_4_0" index="0" speed="6.51" length="9.03" shape="813.60,208.00 811.15,208.35 809.40,209.40 808.35,211.15 808.00,213.60"/>
    </edge>
    <edge id=":C0_5" function="internal">
        <lane id=":C0_5_0" index="0" speed="13.89" length="27.20" shape="813.60,208.00 786.40,208.00"/>
        <lane id=":C0_5_1" index="1" speed="13.89" length="27.20" shape="813.60,204.80 786.40,204.80"/>
        <lane id=":C0_5_2" index="2" speed="13.89" length="27.20" shape="813.60,201.60 786.40,201.60"/>
    </edge>
    <edge id=":C0_8" function="internal">
        <lane id=":C0_8_0" index="0" speed="6.51" length="9.03" shape="808.00,186.40 808.35,188.85 809.40,190.60 811.15,191.65 813.60,192.00"/>
    </edge>
    <edge id=":C0_9" function="internal">
        <lane id=":C0_9_0" index="0" speed="13.89" length="27.20" shape="808.00,186.40 808.00,213.60"/>
        <lane id=":C0_9_1" index="1" speed="13.89" length="27.20" shape="804.80,186.40 804.80,213.60"/>
        <lane id=":C0_9_2" index="2" speed="13.89" length="27.20" shape="801.60,186.40 801.60,213.60"/>
    </edge>
    <edge id=":C0_12" function="internal">
        <lane id=":C0_12_0" index="0" speed="6.51" length="9.03" shape="786.40,192.00 788.85,191.65 790.60,190.60 791.65,188.85 792.00,186.40"/>
    </edge>
    <edge id=":C0_13" function="internal">
        <lane id=":C0_13_0" index="0" speed="13.89" length="27.20" shape="786.40,192.00 813.60,192.00"/>
        <lane id=":C0_13_1" index="1" speed="13.89" length="27.20" shape="786.40,195.20 813.60,195.20"/>
        <lane id=":C0_13_2" index="2" speed="13.89" length="27.20" shape="786.40,198.40 813.60,198.40"/>
    </edge>
    <edge id=":C1_0" function="internal">
        <lane id=":C1_0_0" index="0" speed="6.51" length="9.03" shape="792.00,513.60 791.65,511.15 790.60,509.40 788.85,508.35 786.40,508.00"/>
    </edge>
    <edge id=":C1_1" function="internal">
        <lane id=":C1_1_0" index="0" speed="13.89" length="27.20" shape="792.00,513.60 792.00,486.40"/>
        <lane id=":C1_1_1" index="1" speed="13.89" length="27.20" shape="795.20,513.60 795.20,486.40"/>
        <lane id=":C1_1_2" index="2" speed="13.89" length="27.20" shape="798.40,513.60 798.40,486.40"/>
    </edge>
    <edge id=":C1_4" function="internal">
        <lane id=":C1_4_0" index="0" speed="6.51" length="9.03" shape="813.60,508.00 811.15,508.35 809.40,509.40 808.35,511.15 808.00,513.60"/>
    </edge>
    <edge id=":C1_5" function="internal">
        <lane id=":C1_5_0" index="0" speed="13.89" length="27.20" shape="813.60,508.00 786.40,508.00"/>
        <lane id=":C1_5_1" index="1" speed="13.89" length="27.20" shape="813.60,504.80 786.40,504.80"/>
        <lane id=":C1_5_2" index="2" speed="13.89" length="27.20" shape="813.60,501.60 786.40,501.60"/>
    </edge>
    <edge id=":C1_8" function="internal">
        <lane id=":C1_8_0" index="0" speed="6.51" length="9.03" shape="808.00,486.40 808.35,488.85 809.40,490.60 811.15,491.65 813.60,492.00"/>
    </edge>
    <edge id=":C1_9" function="internal">
        <lane id=":C1_9_0" index="0" speed="13.89" length="27.20" shape="808.00,486.40 808.00,513.60"/>
        <lane id=":C1_9_1" index="1" speed="13.89" length="27.20" shape="804.80,486.40 804.80,513.60"/>
        <lane id=":C1_9_2" index="2" speed="13.89" length="27.20" shape="801.60,486.40 801.60,513.60"/>
    </edge>
    <edge id=":C1_12" function="internal">
        <lane id=":C1_12_0" index="0" speed="6.51" length="9.03" shape="786.40,492.00 788.85,491.65 790.60,490.60 791.65,488.85 792.00,486.40"/>
    </edge>
    <edge id=":C1_13" function="internal">
        <lane id=":C1_13_0" index="0" speed="13.89" length="27.20" shape="786.40,492.00 813.60,492.00"/>
        <lane id=":C1_13_1" index="1" speed="13.89" length="27.20" shape="786.40,495.20 813.60,495.20"/>
        <lane id=":C1_13_2" index="2" speed="13.89" length="27.20" shape="786.40,498.40 813.60,498.40"/>
    </edge>
    <edge id=":C2_0" function="internal">
        <lane id=":C2_0_0" index="0" speed="6.51" length="9.03" shape="792.00,813.60 791.65,811.15 790.60,809.40 788.85,808.35 786.40,808.00"/>
    </edge>
    <edge id=":C2_1" function="internal">
        <lane id=":C2_1_0" index="0" speed="13.89" length="27.20" shape="792.00,813.60 792.00,786.40"/>
        <lane id=":C2_1_1" index="1" speed="13.89" length="27.20" shape="795.20,813.60 795.20,786.40"/>
        <lane id=":C2_1_2" index="2" speed="13.89" length="27.20" shape="798.40,813.60 798.40,786.40"/>
    </edge>
    <edge id=":C2_4" function="internal">
        <lane id=":C2_4_0" index="0" speed="6.51" length="9.03" shape="813.60,808.00 811.15,808.35 809.40,809.40 808.35,811.15 808.00,813.60"/>
    </edge>
    <edge id=":C2_5" function="internal">
        <lane id=":C2_5_0" index="0" speed="13.89" length="27.20" shape="813.60,808.00 786.40,808.00"/>
        <lane id=":C2_5_1" index="1" speed="13.89" length="27.20" shape="813.60,804.80 786.40,804.80"/>
        <lane id=":C2_5_2" index="2" speed="13.89" length="27.20" shape="813.60,801.60 786.40,801.60"/>
    </edge>
    <edge id=":C2_8" function="internal">
        <lane id=":C2_8_0" index="0" speed="6.51" length="9.03" shape="808.00,786.40 808.35,788.85 809.40,790.60 811.15,791.65 813.60,792.00"/>
    </edge>
    <edge id=":C2_9" function="internal">
        <lane id=":C2_9_0" index="0" speed="13.89" length="27.20" shape="808.00,786.40 808.00,813.60"/>
        <lane id=":C2_9_1" index="1" speed="13.89" length="27.20" shape="804.80,786.40 804.80,813.60"/>
        <lane id=":C2_9_2" index="2" speed="13.89" length="27.20" shape="801.60,786.40 801.60,813.60"/>
    </edge>
    <edge id=":C2_12" function="internal">
        <lane id=":C2_12_0" index="0" speed="6.51" length="9.03" shape="786.40,792.00 788.85,791.65 790.60,790.60 791.65,788.85 792.00,786.40"/>
    </edge>
    <edge id=":C2_13" function="internal">
        <lane id=":C2_13_0" index="0" speed="13.89" length="27.20" shape="786.40,792.00 813.60,792.00"/>
        <lane id=":C2_13_1" index="1" speed="13.89" length="27.20" shape="786.40,795.20 813.60,795.20"/>
        <lane id=":C2_13_2" index="2" speed="13.89" length="27.20" shape="786.40,798.40 813.60,798.40"/>
    </edge>
    <edge id=":C3_0" function="internal">
        <lane id=":C3_0_0" index="0" speed="6.51" length="9.03" shape="792.00,1113.60 791.65,1111.15 790.60,1109.40 788.85,1108.35 786.40,1108.00"/>
    </edge>
    <edge id=":C3_1" function="internal">
        <lane id=":C3_1_0" index="0" speed="13.89" length="27.20" shape="792.00,1113.60 792.00,1086.40"/>
        <lane id=":C3_1_1" index="1" speed="13.89" length="27.20" shape="795.20,1113.60 795.20,1086.40"/>
        <lane id=":C3_1_2" index="2" speed="13.89" length="27.20" shape="798.40,1113.60 798.40,1086.40"/>
    </edge>
    <edge id=":C3_4" function="internal">
        <lane id=":C3_4_0" index="0" speed="6.51" length="9.03" shape="813.60,1108.00 811.15,1108.35 809.40,1109.40 808.35,1111.15 808.00,1113.60"/>
    </edge>
    <edge id=":C3_5" function="internal">
        <lane id=":C3_5_0" index="0" speed="13.89" length="27.20" shape="813.60,1108.00 786.40,1108.00"/>
        <lane id=":C3_5_1" index="1" speed="13.89" length="27.20" shape="813.60,1104.80 786.40,1104.80"/>
        <lane id=":C3_5_2" index="2" speed="13.89" length="27.20" shape="813.60,1101.60 786.40,1101.60"/>
    </edge>
    <edge id=":C3_8" function="internal">
        <lane id=":C3_8_0" index="0" speed="6.51" length="9.03" shape="808.00,1086.40 808.35,1088.85 809.40,1090.60 811.15,1091.65 813.60,1092.00"/>
    </edge>
    <edge id=":C3_9" function="internal">
        <lane id=":C3_9_0" index="0" speed="13.89" length="27.20" shape="808.00,1086.40 808.00,1113.60"/>
        <lane id=":C3_9_1" index="1" speed="13.89" length="27.20" shape="804.80,1086.40 804.80,1113.60"/>
        <lane id=":C3_9_2" index="2" speed="13.89" length="27.20" shape="801.60,1086.40 801.60,1113.60"/>
    </edge>
    <edge id=":C3_12" function="internal">
        <lane id=":C3_12_0" index="0" speed="6.51" length="9.03" shape="786.40,1092.00 788.85,1091.65 790.60,1090.60 791.65,1088.85 792.00,1086.40"/>
    </edge>
    <edge id=":C3_13" function="internal">
        <lane id=":C3_13_0" index="0" speed="13.89" length="27.20" shape="786.40,1092.00 813.60,1092.00"/>
        <lane id=":C3_13_1" index="1" speed="13.89" length="27.20" shape="786.40,1095.20 813.60,1095.20"/>
        <lane id=":C3_13_2" index="2" speed="13.89" length="27.20" shape="786.40,1098.40 813.60,1098.40"/>
    </edge>
    <edge id=":D0_0" function="internal">
        <lane id=":D0_0_0" index="0" speed="6.51" length="9.03" shape="1092.00,213.60 1091.65,211.15 1090.60,209.40 1088.85,208.35 1086.40,208.00"/>
    </edge>
    <edge id=":D0_1" function="internal">
        <lane id=":D0_1_0" index="0" speed="13.89" length="27.20" shape="1092.00,213.60 1092.00,186.40"/>
        <lane id=":D0_1_1" index="1" speed="13.89" length="27.20" shape="1095.20,213.60 1095.20,186.40"/>
        <lane id=":D0_1_2" index="2" speed="13.89" length="27.20" shape="1098.40,213.60 1098.40,186.40"/>
    </edge>
    <edge id=":D0_4" function="internal">
        <lane id=":D0_4_0" index="0" speed="6.51" length="9.03" shape="1113.60,208.00 1111.15,208.35 1109.40,209.40 1108.35,211.15 1108.00,213.60"/>
    </edge>
    <edge id=":D0_5" function="internal">
        <lane id=":D0_5_0" index="0" speed="13.89" length="27.20" shape="1113.60,208.00 1086.40,208.00"/>
        <lane id=":D0_5_1" index="1" speed="13.89" length="27.20" shape="1113.60,204.80 1086.40,204.80"/>
        <lane id=":D0_5_2" index="2" speed="13.89" length="27.20" shape="1113.60,201.60 1086.40,201.60"/>
    </edge>
    <edge id=":D0_8" function="internal">
        <lane id=":D0_8_0" index="0" speed="6.51" length="9.03" shape="1108.00,186.40 1108.35,188.85 1109.40,190.60 1111.15,191.65 1113.60,192.00"/>
    </edge>
    <edge id=":D0_9" function="internal">
        <lane id=":D0_9_0" index="0" speed="13.89" length="27.20" shape="1108.00,186.40 1108.00,213.60"/>