<?xml version="1.0" encoding="UTF-8"?>

<!-- generated on 2024-07-17 19:47:30 by Eclipse SUMO netgenerate Version 1.20.0
<configuration xmlns:xsi="http://www.w3.org/2001/XMLSchema-instance" xsi:noNamespaceSchemaLocation="http://sumo.dlr.de/xsd/netgenerateConfiguration.xsd">

    <grid_network>
        <grid value="true"/>
        <grid.number value="5"/>
        <grid.length value="125.0"/>
    </grid_network>

    <output>
        <output-file value="data/road.net.xml"/>
    </output>

    <building_defaults>
        <default.lanenumber value="3"/>
        <default-junction-type value="traffic_light"/>
    </building_defaults>

    <junctions>
        <no-turnarounds value="true"/>
        <junctions.join-turns value="true"/>
    </junctions>

</configuration>
-->

<net version="1.20" junctionCornerDetail="5" limitTurnSpeed="5.50" xmlns:xsi="http://www.w3.org/2001/XMLSchema-instance" xsi:noNamespaceSchemaLocation="http://sumo.dlr.de/xsd/net_file.xsd">

    <location netOffset="0.00,0.00" convBoundary="0.00,0.00,500.00,500.00" origBoundary="0.00,0.00,500.00,500.00" projParameter="!"/>

    <edge id=":A0_0" function="internal">
        <lane id=":A0_0_0" index="0" speed="11.12" length="23.22" shape="-8.00,9.60 -6.90,1.90 -3.60,-3.60 1.90,-6.90 9.60,-8.00"/>
        <lane id=":A0_0_1" index="1" speed="10.10" length="23.22" shape="-4.80,9.60 -3.90,3.30 -1.20,-1.20 3.30,-3.90 9.60,-4.80"/>
        <lane id=":A0_0_2" index="2" speed="8.96" length="23.22" shape="-1.60,9.60 -0.90,4.70 1.20,1.20 4.70,-0.90 9.60,-1.60"/>
    </edge>
    <edge id=":A0_3" function="internal">
        <lane id=":A0_3_0" index="0" speed="3.90" length="7.74" shape="9.60,8.00 8.90,8.10 8.40,8.40 8.10,8.90 8.00,9.60"/>
        <lane id=":A0_3_1" index="1" speed="6.08" length="7.74" shape="9.60,4.80 7.50,5.10 6.00,6.00 5.10,7.50 4.80,9.60"/>
        <lane id=":A0_3_2" index="2" speed="7.66" length="7.74" shape="9.60,1.60 6.10,2.10 3.60,3.60 2.10,6.10 1.60,9.60"/>
    </edge>
    <edge id=":A1_0" function="internal">
        <lane id=":A1_0_0" index="0" speed="13.89" length="27.20" shape="-8.00,138.60 -8.00,111.40"/>
        <lane id=":A1_0_1" index="1" speed="13.89" length="27.20" shape="-4.80,138.60 -4.80,111.40"/>
        <lane id=":A1_0_2" index="2" speed="13.89" length="27.20" shape="-1.60,138.60 -1.60,111.40"/>
    </edge>
    <edge id=":A1_3" function="internal">
        <lane id=":A1_3_0" index="0" speed="10.88" length="5.52" shape="-1.60,138.60 -0.89,132.62"/>
        <lane id=":A1_3_1" index="1" speed="10.36" length="5.52" shape="-1.60,138.60 -0.89,133.64"/>
    </edge>
    <edge id=":A1_13" function="internal">
        <lane id=":A1_13_0" index="0" speed="10.88" length="21.12" shape="-0.89,132.62 -0.65,130.55 2.20,124.80 6.95,121.35 13.60,120.20"/>
    </edge>
    <edge id=":A1_14" function="internal">
        <lane id=":A1_14_0" index="0" speed="10.36" length="19.50" shape="-0.89,133.64 -0.65,131.95 2.20,127.20 6.95,124.35 13.60,123.40"/>
    </edge>
    <edge id=":A1_5" function="internal">
        <lane id=":A1_5_0" index="0" speed="6.51" length="11.61" shape="13.60,133.00 11.15,133.35 9.40,134.40 8.35,136.15 8.00,138.60"/>
        <lane id=":A1_5_1" index="1" speed="8.00" length="11.61" shape="13.60,129.80 9.75,130.35 7.00,132.00 5.35,134.75 4.80,138.60"/>
    </edge>
    <edge id=":A1_7" function="internal">
        <lane id=":A1_7_0" index="0" speed="10.88" length="25.83" shape="13.60,126.60 5.55,125.65 -0.20,122.80 -3.65,118.05 -4.80,111.40"/>
        <lane id=":A1_7_1" index="1" speed="10.36" length="25.83" shape="13.60,126.60 6.95,125.65 2.20,122.80 -0.65,118.05 -1.60,111.40"/>
    </edge>
    <edge id=":A1_9" function="internal">
        <lane id=":A1_9_0" index="0" speed="6.51" length="9.03" shape="8.00,111.40 8.35,113.85 9.40,115.60 11.15,116.65 13.60,117.00"/>
    </edge>
    <edge id=":A1_10" function="internal">
        <lane id=":A1_10_0" index="0" speed="13.89" length="27.20" shape="8.00,111.40 8.00,138.60"/>
        <lane id=":A1_10_1" index="1" speed="13.89" length="27.20" shape="4.80,111.40 4.80,138.60"/>
        <lane id=":A1_10_2" index="2" speed="13.89" length="27.20" shape="1.60,111.40 1.60,138.60"/>
    </edge>
    <edge id=":A2_0" function="internal">
        <lane id=":A2_0_0" index="0" speed="13.89" length="27.20" shape="-8.00,263.60 -8.00,236.40"/>
        <lane id=":A2_0_1" index="1" speed="13.89" length="27.20" shape="-4.80,263.60 -4.80,236.40"/>
        <lane id=":A2_0_2" index="2" speed="13.89" length="27.20" shape="-1.60,263.60 -1.60,236.40"/>
    </edge>
    <edge id=":A2_3" function="internal">
        <lane id=":A2_3_0" index="0" speed="10.88" length="5.52" shape="-1.60,263.60 -0.89,257.62"/>
        <lane id=":A2_3_1" index="1" speed="10.36" length="5.52" shape="-1.60,263.60 -0.89,258.64"/>
    </edge>
    <edge id=":A2_13" function="internal">
        <lane id=":A2_13_0" index="0" speed="10.88" length="21.12" shape="-0.89,257.62 -0.65,255.55 2.20,249.80 6.95,246.35 13.60,245.20"/>
    </edge>
    <edge id=":A2_14" function="internal">
        <lane id=":A2_14_0" index="0" speed="10.36" length="19.50" shape="-0.89,258.64 -0.65,256.95 2.20,252.20 6.95,249.35 13.60,248.40"/>
    </edge>
    <edge id=":A2_5" function="internal">
        <lane id=":A2_5_0" index="0" speed="6.51" length="11.61" shape="13.60,258.00 11.15,258.35 9.40,259.40 8.35,261.15 8.00,263.60"/>
        <lane id=":A2_5_1" index="1" speed="8.00" length="11.61" shape="13.60,254.80 9.75,255.35 7.00,257.00 5.35,259.75 4.80,263.60"/>
    </edge>
    <edge id=":A2_7" function="internal">
        <lane id=":A2_7_0" index="0" speed="10.88" length="25.83" shape="13.60,251.60 5.55,250.65 -0.20,247.80 -3.65,243.05 -4.80,236.40"/>
        <lane id=":A2_7_1" index="1" speed="10.36" length="25.83" shape="13.60,251.60 6.95,250.65 2.20,247.80 -0.65,243.05 -1.60,236.40"/>
    </edge>
    <edge id=":A2_9" function="internal">
        <lane id=":A2_9_0" index="0" speed="6.51" length="9.03" shape="8.00,236.40 8.35,238.85 9.40,240.60 11.15,241.65 13.60,242.00"/>
    </edge>
    <edge id=":A2_10" function="internal">
        <lane id=":A2_10_0" index="0" speed="13.89" length="27.20" shape="8.00,236.40 8.00,263.60"/>
        <lane id=":A2_10_1" index="1" speed="13.89" length="27.20" shape="4.80,236.40 4.80,263.60"/>
        <lane id=":A2_10_2" index="2" speed="13.89" length="27.20" shape="1.60,236.40 1.60,263.60"/>
    </edge>
    <edge id=":A3_0" function="internal">
        <lane id=":A3_0_0" index="0" speed="13.89" length="27.20" shape="-8.00,388.60 -8.00,361.40"/>
        <lane id=":A3_0_1" index="1" speed="13.89" length="27.20" shape="-4.80,388.60 -4.80,361.40"/>
        <lane id=":A3_0_2" index="2" speed="13.89" length="27.20" shape="-1.60,388.60 -1.60,361.40"/>
    </edge>
    <edge id=":A3_3" function="internal">
        <lane id=":A3_3_0" index="0" speed="10.88" length="5.52" shape="-1.60,388.60 -0.89,382.62"/>
        <lane id=":A3_3_1" index="1" speed="10.36" length="5.52" shape="-1.60,388.60 -0.89,383.64"/>
    </edge>
    <edge id=":A3_13" function="internal">
        <lane id=":A3_13_0" index="0" speed="10.88" length="21.12" shape="-0.89,382.62 -0.65,380.55 2.20,374.80 6.95,371.35 13.60,370.20"/>
    </edge>
    <edge id=":A3_14" function="internal">
        <lane id=":A3_14_0" index="0" speed="10.36" length="19.50" shape="-0.89,383.64 -0.65,381.95 2.20,377.20 6.95,374.35 13.60,373.40"/>
    </edge>
    <edge id=":A3_5" function="internal">
        <lane id=":A3_5_0" index="0" speed="6.51" length="11.61" shape="13.60,383.00 11.15,383.35 9.40,384.40 8.35,386.15 8.00,388.60"/>
        <lane id=":A3_5_1" index="1" speed="8.00" length="11.61" shape="13.60,379.80 9.75,380.35 7.00,382.00 5.35,384.75 4.80,388.60"/>
    </edge>
    <edge id=":A3_7" function="internal">
        <lane id=":A3_7_0" index="0" speed="10.88" length="25.83" shape="13.60,376.60 5.55,375.65 -0.20,372.80 -3.65,368.05 -4.80,361.40"/>
        <lane id=":A3_7_1" index="1" speed="10.36" length="25.83" shape="13.60,376.60 6.95,375.65 2.20,372.80 -0.65,368.05 -1.60,361.40"/>
    </edge>
    <edge id=":A3_9" function="internal">
        <lane id=":A3_9_0" index="0" speed="6.51" length="9.03" shape="8.00,361.40 8.35,363.85 9.40,365.60 11.15,366.65 13.60,367.00"/>
    </edge>
    <edge id=":A3_10" function="internal">
        <lane id=":A3_10_0" index="0" speed="13.89" length="27.20" shape="8.00,361.40 8.00,388.60"/>
        <lane id=":A3_10_1" index="1" speed="13.89" length="27.20" shape="4.80,361.40 4.80,388.60"/>
        <lane id=":A3_10_2" index="2" speed="13.89" length="27.20" shape="1.60,361.40 1.60,388.60"/>
    </edge>
    <edge id=":A4_0" function="internal">
        <lane id=":A4_0_0" index="0" speed="11.12" length="23.22" shape="9.60,508.00 1.90,506.90 -3.60,503.60 -6.90,498.10 -8.00,490.40"/>
        <lane id=":A4_0_1" index="1" speed="10.10" length="23.22" shape="9.60,504.80 3.30,503.90 -1.20,501.20 -3.90,496.70 -4.80,490.40"/>
        <lane id=":A4_0_2" index="2" speed="8.96" length="23.22" shape="9.60,501.60 4.70,500.90 1.20,498.80 -0.90,495.30 -1.60,490.40"/>
    </edge>
    <edge id=":A4_3" function="internal">
        <lane id=":A4_3_0" index="0" speed="3.90" length="7.74" shape="8.00,490.40 8.10,491.10 8.40,491.60 8.90,491.90 9.60,492.00"/>
        <lane id=":A4_3_1" index="1" speed="6.08" length="7.74" shape="4.80,490.40 5.10,492.50 6.00,494.00 7.50,494.90 9.60,495.20"/>
        <lane id=":A4_3_2" index="2" speed="7.66" length="7.74" shape="1.60,490.40 2.10,493.90 3.60,496.40 6.10,497.90 9.60,498.40"/>
    </edge>
    <edge id=":B0_0" function="internal">
        <lane id=":B0_0_0" index="0" speed="6.51" length="11.61" shape="117.00,13.60 116.65,11.15 115.60,9.40 113.85,8.35 111.40,8.00"/>
        <lane id=":B0_0_1" index="1" speed="8.00" length="11.61" shape="120.20,13.60 119.65,9.75 118.00,7.00 115.25,5.35 111.40,4.80"/>
    </edge>
    <edge id=":B0_2" function="internal">
        <lane id=":B0_2_0" index="0" speed="10.88" length="25.83" shape="123.40,13.60 124.35,5.55 127.20,-0.20 131.95,-3.65 138.60,-4.80"/>
        <lane id=":B0_2_1" index="1" speed="10.36" length="25.83" shape="123.40,13.60 124.35,6.95 127.20,2.20 131.95,-0.65 138.60,-1.60"/>
    </edge>
    <edge id=":B0_4" function="internal">
        <lane id=":B0_4_0" index="0" speed="6.51" length="9.03" shape="138.60,8.00 136.15,8.35 134.40,9.40 133.35,11.15 133.00,13.60"/>
    </edge>
    <edge id=":B0_5" function="internal">
        <lane id=":B0_5_0" index="0" speed="13.89" length="27.20" shape="138.60,8.00 111.40,8.00"/>
        <lane id=":B0_5_1" index="1" speed="13.89" length="27.20" shape="138.60,4.80 111.40,4.80"/>
        <lane id=":B0_5_2" index="2" speed="13.89" length="27.20" shape="138.60,1.60 111.40,1.60"/>
    </edge>
    <edge id=":B0_8" function="internal">
        <lane id=":B0_8_0" index="0" speed="13.89" length="27.20" shape="111.40,-8.00 138.60,-8.00"/>
        <lane id=":B0_8_1" index="1" speed="13.89" length="27.20" shape="111.40,-4.80 138.60,-4.80"/>
        <lane id=":B0_8_2" index="2" speed="13.89" length="27.20" shape="111.40,-1.60 138.60,-1.60"/>
    </edge>
    <edge id=":B0_11" function="internal">
        <lane id=":B0_11_0" index="0" speed="10.88" length="5.52" shape="111.40,-1.60 117.38,-0.89"/>
        <lane id=":B0_11_1" index="1" speed="10.36" length="5.52" shape="111.40,-1.60 116.36,-0.89"/>
    </edge>
    <edge id=":B0_13" function="internal">
        <lane id=":B0_13_0" index="0" speed="10.88" length="21.12" shape="117.38,-0.89 119.45,-0.65 125.20,2.20 128.65,6.95 129.80,13.60"/>
    </edge>
    <edge id=":B0_14" function="internal">
        <lane id=":B0_14_0" index="0" speed="10.36" length="19.50" shape="116.36,-0.89 118.05,-0.65 122.80,2.20 125.65,6.95 126.60,13.60"/>
    </edge>
    <edge id=":B1_0" function="internal">
        <lane id=":B1_0_0" index="0" speed="6.51" length="9.03" shape="117.00,138.60 116.65,136.15 115.60,134.40 113.85,133.35 111.40,133.00"/>
    </edge>
    <edge id=":B1_1" function="internal">
        <lane id=":B1_1_0" index="0" speed="13.89" length="27.20" shape="117.00,138.60 117.00,111.40"/>
        <lane id=":B1_1_1" index="1" speed="13.89" length="27.20" shape="120.20,138.60 120.20,111.40"/>
        <lane id=":B1_1_2" index="2" speed="13.89" length="27.20" shape="123.40,138.60 123.40,111.40"/>
    </edge>
    <edge id=":B1_4" function="internal">
        <lane id=":B1_4_0" index="0" speed="10.36" length="5.01" shape="123.40,138.60 124.11,133.64"/>
    </edge>
    <edge id=":B1_20" function="internal">
        <lane id=":B1_20_0" index="0" speed="10.36" length="19.50" shape="124.11,133.64 124.35,131.95 127.20,127.20 131.95,124.35 138.60,123.40"/>
    </edge>
    <edge id=":B1_5" function="internal">
        <lane id=":B1_5_0" index="0" speed="6.51" length="9.03" shape="138.60,133.00 136.15,133.35 134.40,134.40 133.35,136.15 133.00,138.60"/>
    </edge>
    <edge id=":B1_6" function="internal">
        <lane id=":B1_6_0" index="0" speed="13.89" length="27.20" shape="138.60,133.00 111.40,133.00"/>
        <lane id=":B1_6_1" index="1" speed="13.89" length="27.20" shape="138.60,129.80 111.40,129.80"/>
        <lane id=":B1_6_2" index="2" speed="13.89" length="27.20" shape="138.60,126.60 111.40,126.60"/>
    </edge>
    <edge id=":B1_9" function="internal">
        <lane id=":B1_9_0" index="0" speed="10.36" length="5.01" shape="138.60,126.60 133.64,125.89"/>
    </edge>
    <edge id=":B1_21" function="internal">
        <lane id=":B1_21_0" index="0" speed="10.36" length="19.50" shape="133.64,125.89 131.95,125.65 127.20,122.80 124.35,118.05 123.40,111.40"/>
    </edge>
    <edge id=":B1_10" function="internal">
        <lane id=":B1_10_0" index="0" speed="6.51" length="9.03" shape="133.00,111.40 133.35,113.85 134.40,115.60 136.15,116.65 138.60,117.00"/>
    </edge>
    <edge id=":B1_11" function="internal">
        <lane id=":B1_11_0" index="0" speed="13.89" length="27.20" shape="133.00,111.40 133.00,138.60"/>
        <lane id=":B1_11_1" index="1" speed="13.89" length="27.20" shape="129.80,111.40 129.80,138.60"/>
        <lane id=":B1_11_2" index="2" speed="13.89" length="27.20" shape="126.60,111.40 126.60,138.60"/>
    </edge>
    <edge id=":B1_14" function="internal">
        <lane id=":B1_14_0" index="0" speed="10.36" length="5.01" shape="126.60,111.40 125.89,116.36"/>
    </edge>
    <edge id=":B1_22" function="internal">
        <lane id=":B1_22_0" index="0" speed="10.36" length="19.50" shape="125.89,116.36 125.65,118.05 122.80,122.80 118.05,125.65 111.40,126.60"/>
    </edge>
    <edge id=":B1_15" function="internal">
        <lane id=":B1_15_0" index="0" speed="6.51" length="9.03" shape="111.40,117.00 113.85,116.65 115.60,115.60 116.65,113.85 117.00,111.40"/>
    </edge>
    <edge id=":B1_16" function="internal">
        <lane id=":B1_16_0" index="0" speed="13.89" length="27.20" shape="111.40,117.00 138.60,117.00"/>
        <lane id=":B1_16_1" index="1" speed="13.89" length="27.20" shape="111.40,120.20 138.60,120.20"/>
        <lane id=":B1_16_2" index="2" speed="13.89" length="27.20" shape="111.40,123.40 138.60,123.40"/>
    </edge>
    <edge id=":B1_19" function="internal">
        <lane id=":B1_19_0" index="0" speed="10.36" length="5.01" shape="111.40,123.40 116.36,124.11"/>
    </edge>
    <edge id=":B1_23" function="internal">
        <lane id=":B1_23_0" index="0" speed="10.36" length="19.50" shape="116.36,124.11 118.05,124.35 122.80,127.20 125.65,131.95 126.60,138.60"/>
    </edge>
    <edge id=":B2_0" function="internal">
        <lane id=":B2_0_0" index="0" speed="6.51" length="9.03" shape="117.00,263.60 116.65,261.15 115.60,259.40 113.85,258.35 111.40,258.00"/>
    </edge>
    <edge id=":B2_1" function="internal">
        <lane id=":B2_1_0" index="0" speed="13.89" length="27.20" shape="117.00,263.60 117.00,236.40"/>
        <lane id=":B2_1_1" index="1" speed="13.89" length="27.20" shape="120.20,263.60 120.20,236.40"/>
        <lane id=":B2_1_2" index="2" speed="13.89" length="27.20" shape="123.40,263.60 123.40,236.40"/>
    </edge>
    <edge id=":B2_4" function="internal">
        <lane id=":B2_4_0" index="0" speed="10.36" length="5.01" shape="123.40,263.60 124.11,258.64"/>
    </edge>
    <edge id=":B2_20" function="internal">
        <lane id=":B2_20_0" index="0" speed="10.36" length="19.50" shape="124.11,258.64 124.35,256.95 127.20,252.20 131.95,249.35 138.60,248.40"/>
    </edge>
    <edge id=":B2_5" function="internal">
        <lane id=":B2_5_0" index="0" speed="6.51" length="9.03" shape="138.60,258.00 136.15,258.35 134.40,259.40 133.35,261.15 133.00,263.60"/>
    </edge>
    <edge id=":B2_6" function="internal">
        <lane id=":B2_6_0" index="0" speed="13.89" length="27.20" shape="138.60,258.00 111.40,258.00"/>
        <lane id=":B2_6_1" index="1" speed="13.89" length="27.20" shape="138.60,254.80 111.40,254.80"/>
        <lane id=":B2_6_2" index="2" speed="13.89" length="27.20" shape="138.60,251.60 111.40,251.60"/>
    </edge>
    <edge id=":B2_9" function="internal">
        <lane id=":B2_9_0" index="0" speed="10.36" length="5.01" shape="138.60,251.60 133.64,250.89"/>
    </edge>
    <edge id=":B2_21" function="internal">
        <lane id=":B2_21_0" index="0" speed="10.36" length="19.50" shape="133.64,250.89 131.95,250.65 127.20,247.80 124.35,243.05 123.40,236.40"/>
    </edge>
    <edge id=":B2_10" function="internal">
        <lane id=":B2_10_0" index="0" speed="6.51" length="9.03" shape="133.00,236.40 133.35,238.85 134.40,240.60 136.15,241.65 138.60,242.00"/>
    </edge>
    <edge id=":B2_11" function="internal">
        <lane id=":B2_11_0" index="0" speed="13.89" length="27.20" shape="133.00,236.40 133.00,263.60"/>
        <lane id=":B2_11_1" index="1" speed="13.89" length="27.20" shape="129.80,236.40 129.80,263.60"/>
        <lane id=":B2_11_2" index="2" speed="13.89" length="27.20" shape="126.60,236.40 126.60,263.60"/>
    </edge>
    <edge id=":B2_14" function="internal">
        <lane id=":B2_14_0" index="0" speed="10.36" length="5.01" shape="126.60,236.40 125.89,241.36"/>
    </edge>
    <edge id=":B2_22" function="internal">
        <lane id=":B2_22_0" index="0" speed="10.36" length="19.50" shape="125.89,241.36 125.65,243.05 122.80,247.80 118.05,250.65 111.40,251.60"/>
    </edge>
    <edge id=":B2_15" function="internal">
        <lane id=":B2_15_0" index="0" speed="6.51" length="9.03" shape="111.40,242.00 113.85,241.65 115.60,240.60 116.65,238.85 117.00,236.40"/>
    </edge>
    <edge id=":B2_16" function="internal">
        <lane id=":B2_16_0" index="0" speed="13.89" length="27.20" shape="111.40,242.00 138.60,242.00"/>
        <lane id=":B2_16_1" index="1" speed="13.89" length="27.20" shape="111.40,245.20 138.60,245.20"/>
        <lane id=":B2_16_2" index="2" speed="13.89" length="27.20" shape="111.40,248.40 138.60,248.40"/>
    </edge>
    <edge id=":B2_19" function="internal">
        <lane id=":B2_19_0" index="0" speed="10.36" length="5.01" shape="111.40,248.40 116.36,249.11"/>
    </edge>
    <edge id=":B2_23" function="internal">
        <lane id=":B2_23_0" index="0" speed="10.36" length="19.50" shape="116.36,249.11 118.05,249.35 122.80,252.20 125.65,256.95 126.60,263.60"/>
    </edge>
    <edge id=":B3_0" function="internal">
        <lane id=":B3_0_0" index="0" speed="6.51" length="9.03" shape="117.00,388.60 116.65,386.15 115.60,384.40 113.85,383.35 111.40,383.00"/>
    </edge>
    <edge id=":B3_1" function="internal">
        <lane id=":B3_1_0" index="0" speed="13.89" length="27.20" shape="117.00,388.60 117.00,361.40"/>
        <lane id=":B3_1_1" index="1" speed="13.89" length="27.20" shape="120.20,388.60 120.20,361.40"/>
        <lane id=":B3_1_2" index="2" speed="13.89" length="27.20" shape="123.40,388.60 123.40,361.40"/>
    </edge>
    <edge id=":B3_4" function="internal">
        <lane id=":B3_4_0" index="0" speed="10.36" length="5.01" shape="123.40,388.60 124.11,383.64"/>
    </edge>
    <edge id=":B3_20" function="internal">
        <lane id=":B3_20_0" index="0" speed="10.36" length="19.50" shape="124.11,383.64 124.35,381.95 127.20,377.20 131.95,374.35 138.60,373.40"/>
    </edge>
    <edge id=":B3_5" function="internal">
        <lane id=":B3_5_0" index="0" speed="6.51" length="9.03" shape="138.60,383.00 136.15,383.35 134.40,384.40 133.35,386.15 133.00,388.60"/>
    </edge>
    <edge id=":B3_6" function="internal">
        <lane id=":B3_6_0" index="0" speed="13.89" length="27.20" shape="138.60,383.00 111.40,383.00"/>
        <lane id=":B3_6_1" index="1" speed="13.89" length="27.20" shape="138.60,379.80 111.40,379.80"/>
        <lane id=":B3_6_2" index="2" speed="13.89" length="27.20" shape="138.60,376.60 111.40,376.60"/>
    </edge>
    <edge id=":B3_9" function="internal">
        <lane id=":B3_9_0" index="0" speed="10.36" length="5.01" shape="138.60,376.60 133.64,375.89"/>
    </edge>
    <edge id=":B3_21" function="internal">
        <lane id=":B3_21_0" index="0" speed="10.36" length="19.50" shape="133.64,375.89 131.95,375.65 127.20,372.80 124.35,368.05 123.40,361.40"/>
    </edge>
    <edge id=":B3_10" function="internal">
        <lane id=":B3_10_0" index="0" speed="6.51" length="9.03" shape="133.00,361.40 133.35,363.85 134.40,365.60 136.15,366.65 138.60,367.00"/>
    </edge>
    <edge id=":B3_11" function="internal">
        <lane id=":B3_11_0" index="0" speed="13.89" length="27.20" shape="133.00,361.40 133.00,388.60"/>
        <lane id=":B3_11_1" index="1" speed="13.89" length="27.20" shape="129.80,361.40 129.80,388.60"/>
        <lane id=":B3_11_2" index="2" speed="13.89" length="27.20" shape="126.60,361.40 126.60,388.60"/>
    </edge>
    <edge id=":B3_14" function="internal">
        <lane id=":B3_14_0" index="0" speed="10.36" length="5.01" shape="126.60,361.40 125.89,366.36"/>
    </edge>
    <edge id=":B3_22" function="internal">
        <lane id=":B3_22_0" index="0" speed="10.36" length="19.50" shape="125.89,366.36 125.65,368.05 122.80,372.80 118.05,375.65 111.40,376.60"/>
    </edge>
    <edge id=":B3_15" function="internal">
        <lane id=":B3_15_0" index="0" speed="6.51" length="9.03" shape="111.40,367.00 113.85,366.65 115.60,365.60 116.65,363.85 117.00,361.40"/>
    </edge>
    <edge id=":B3_16" function="internal">
        <lane id=":B3_16_0" index="0" speed="13.89" length="27.20" shape="111.40,367.00 138.60,367.00"/>
        <lane id=":B3_16_1" index="1" speed="13.89" length="27.20" shape="111.40,370.20 138.60,370.20"/>
        <lane id=":B3_16_2" index="2" speed="13.89" length="27.20" shape="111.40,373.40 138.60,373.40"/>
    </edge>
    <edge id=":B3_19" function="internal">
        <lane id=":B3_19_0" index="0" speed="10.36" length="5.01" shape="111.40,373.40 116.36,374.11"/>
    </edge>
    <edge id=":B3_23" function="internal">
        <lane id=":B3_23_0" index="0" speed="10.36" length="19.50" shape="116.36,374.11 118.05,374.35 122.80,377.20 125.65,381.95 126.60,388.60"/>
    </edge>
    <edge id=":B4_0" function="internal">
        <lane id=":B4_0_0" index="0" speed="13.89" length="27.20" shape="138.60,508.00 111.40,508.00"/>
        <lane id=":B4_0_1" index="1" speed="13.89" length="27.20" shape="138.60,504.80 111.40,504.80"/>
        <lane id=":B4_0_2" index="2" speed="13.89" length="27.20" shape="138.60,501.60 111.40,501.60"/>
    </edge>
    <edge id=":B4_3" function="internal">
        <lane id=":B4_3_0" index="0" speed="10.88" length="5.52" shape="138.60,501.60 132.62,500.89"/>
        <lane id=":B4_3_1" index="1" speed="10.36" length="5.52" shape="138.60,501.60 133.64,500.89"/>
    </edge>
    <edge id=":B4_13" function="internal">
        <lane id=":B4_13_0" index="0" speed="10.88" length="21.12" shape="132.62,500.89 130.55,500.65 124.80,497.80 121.35,493.05 120.20,486.40"/>
    </edge>
    <edge id=":B4_14" function="internal">
        <lane id=":B4_14_0" index="0" speed="10.36" length="19.50" shape="133.64,500.89 131.95,500.65 127.20,497.80 124.35,493.05 123.40,486.40"/>
    </edge>
    <edge id=":B4_5" function="internal">
        <lane id=":B4_5_0" index="0" speed="6.51" length="11.61" shape="133.00,486.40 133.35,488.85 134.40,490.60 136.15,491.65 138.60,492.00"/>
        <lane id=":B4_5_1" index="1" speed="8.00" length="11.61" shape="129.80,486.40 130.35,490.25 132.00,493.00 134.75,494.65 138.60,495.20"/>
    </edge>
    <edge id=":B4_7" function="internal">
        <lane id=":B4_7_0" index="0" speed="10.88" length="25.83" shape="126.60,486.40 125.65,494.45 122.80,500.20 118.05,503.65 111.40,504.80"/>
        <lane id=":B4_7_1" index="1" speed="10.36" length="25.83" shape="126.60,486.40 125.65,493.05 122.80,497.80 118.05,500.65 111.40,501.60"/>
    </edge>
    <edge id=":B4_9" function="internal">
        <lane id=":B4_9_0" index="0" speed="6.51" length="9.03" shape="111.40,492.00 113.85,491.65 115.60,490.60 116.65,488.85 117.00,486.40"/>
    </edge>
    <edge id=":B4_10" function="internal">
        <lane id=":B4_10_0" index="0" speed="13.89" length="27.20" shape="111.40,492.00 138.60,492.00"/>
        <lane id=":B4_10_1" index="1" speed="13.89" length="27.20" shape="111.40,495.20 138.60,495.20"/>
        <lane id=":B4_10_2" index="2" speed="13.89" length="27.20" shape="111.40,498.40 138.60,498.40"/>
    </edge>
    <edge id=":C0_0" function="internal">
        <lane id=":C0_0_0" index="0" speed="6.51" length="11.61" shape="242.00,13.60 241.65,11.15 240.60,9.40 238.85,8.35 236.40,8.00"/>
        <lane id=":C0_0_1" index="1" speed="8.00" length="11.61" shape="245.20,13.60 244.65,9.75 243.00,7.00 240.25,5.35 236.40,4.80"/>
    </edge>
    <edge id=":C0_2" function="internal">
        <lane id=":C0_2_0" index="0" speed="10.88" length="25.83" shape="248.40,13.60 249.35,5.55 252.20,-0.20 256.95,-3.65 263.60,-4.80"/>
        <lane id=":C0_2_1" index="1" speed="10.36" length="25.83" shape="248.40,13.60 249.35,6.95 252.20,2.20 256.95,-0.65 263.60,-1.60"/>
    </edge>
    <edge id=":C0_4" function="internal">
        <lane id=":C0_4_0" index="0" speed="6.51" length="9.03" shape="263.60,8.00 261.15,8.35 259.40,9.40 258.35,11.15 258.00,13.60"/>
    </edge>
    <edge id=":C0_5" function="internal">
        <lane id=":C0_5_0" index="0" speed="13.89" length="27.20" shape="263.60,8.00 236.40,8.00"/>
        <lane id=":C0_5_1" index="1" speed="13.89" length="27.20" shape="263.60,4.80 236.40,4.80"/>
        <lane id=":C0_5_2" index="2" speed="13.89" length="27.20" shape="263.60,1.60 236.40,1.60"/>
    </edge>
    <edge id=":C0_8" function="internal">
        <lane id=":C0_8_0" index="0" speed="13.89" length="27.20" shape="236.40,-8.00 263.60,-8.00"/>
        <lane id=":C0_8_1" index="1" speed="13.89" length="27.20" shape="236.40,-4.80 263.60,-4.80"/>
        <lane id=":C0_8_2" index="2" speed="13.89" length="27.20" shape="236.40,-1.60 263.60,-1.60"/>
    </edge>
    <edge id=":C0_11" function="internal">
        <lane id=":C0_11_0" index="0" speed="10.88" length="5.52" shape="236.40,-1.60 242.38,-0.89"/>
        <lane id=":C0_11_1" index="1" speed="10.36" length="5.52" shape="236.40,-1.60 241.36,-0.89"/>
    </edge>
    <edge id=":C0_13" function="internal">
        <lane id=":C0_13_0" index="0" speed="10.88" length="21.12" shape="242.38,-0.89 244.45,-0.65 250.20,2.20 253.65,6.95 254.80,13.60"/>
    </edge>
    <edge id=":C0_14" function="internal">
        <lane id=":C0_14_0" index="0" speed="10.36" length="19.50" shape="241.36,-0.89 243.05,-0.65 247.80,2.20 250.65,6.95 251.60,13.60"/>
    </edge>
    <edge id=":C1_0" function="internal">
        <lane id=":C1_0_0" index="0" speed="6.51" length="9.03" shape="242.00,138.60 241.65,136.15 240.60,134.40 238.85,133.35 236.40,133.00"/>
    </edge>
    <edge id=":C1_1" function="internal">
        <lane id=":C1_1_0" index="0" speed="13.89" length="27.20" shape="242.00,138.60 242.00,111.40"/>
        <lane id=":C1_1_1" index="1" speed="13.89" length="27.20" shape="245.20,138.60 245.20,111.40"/>
        <lane id=":C1_1_2" index="2" speed="13.89" length="27.20" shape="248.40,138.60 248.40,111.40"/>
    </edge>
    <edge id=":C1_4" function="internal">
        <lane id=":C1_4_0" index="0" speed="10.36" length="5.01" shape="248.40,138.60 249.11,133.64"/>
    </edge>
    <edge id=":C1_20" function="internal">
        <lane id=":C1_20_0" index="0" speed="10.36" length="19.50" shape="249.11,133.64 249.35,131.95 252.20,127.20 256.95,124.35 263.60,123.40"/>
    </edge>
    <edge id=":C1_5" function="internal">
        <lane id=":C1_5_0" index="0" speed="6.51" length="9.03" shape="263.60,133.00 261.15,133.35 259.40,134.40 258.35,136.15 258.00,138.60"/>
    </edge>
    <edge id=":C1_6" function="internal">
        <lane id=":C1_6_0" index="0" speed="13.89" length="27.20" shape="263.60,133.00 236.40,133.00"/>
        <lane id=":C1_6_1" index="1" speed="13.89" length="27.20" shape="263.60,129.80 236.40,129.80"/>
        <lane id=":C1_6_2" index="2" speed="13.89" length="27.20" shape="263.60,126.60 236.40,126.60"/>
    </edge>
    <edge id=":C1_9" function="internal">
        <lane id=":C1_9_0" index="0" speed="10.36" length="5.01" shape="263.60,126.60 258.64,125.89"/>
    </edge>
    <edge id=":C1_21" function="internal">
        <lane id=":C1_21_0" index="0" speed="10.36" length="19.50" shape="258.64,125.89 256.95,125.65 252.20,122.80 249.35,118.05 248.40,111.40"/>
    </edge>
    <edge id=":C1_10" function="internal">
        <lane id=":C1_10_0" index="0" speed="6.51" length="9.03" shape="258.00,111.40 258.35,113.85 259.40,115.60 261.15,116.65 263.60,117.00"/>
    </edge>
    <edge id=":C1_11" function="internal">
        <lane id=":C1_11_0" index="0" speed="13.89" length="27.20" shape="258.00,111.40 258.00,138.60"/>
        <lane id=":C1_11_1" index="1" speed="13.89" length="27.20" shape="254.80,111.40 254.80,138.60"/>
        <lane id=":C1_11_2" index="2" speed="13.89" length="27.20" shape="251.60,111.40 251.60,138.60"/>
    </edge>
    <edge id=":C1_14" function="internal">
        <lane id=":C1_14_0" index="0" speed="10.36" length="5.01" shape="251.60,111.40 250.89,116.36"/>
    </edge>
    <edge id=":C1_22" function="internal">