<?xml version="1.0" encoding="UTF-8"?>

<!-- generated on 2024-05-13 14:25:12 by Eclipse SUMO netgenerate Version 1.19.0
<configuration xmlns:xsi="http://www.w3.org/2001/XMLSchema-instance" xsi:noNamespaceSchemaLocation="http://sumo.dlr.de/xsd/netgenerateConfiguration.xsd">

    <grid_network>
        <grid value="true"/>
        <grid.number value="3"/>
        <grid.length value="300"/>
        <grid.attach-length value="200"/>
    </grid_network>

    <output>
        <output-file value="data/road.net.xml"/>
    </output>

    <building_defaults>
        <default.lanenumber value="4"/>
        <default-junction-type value="traffic_light"/>
    </building_defaults>

</configuration>
-->

<net version="1.16" junctionCornerDetail="5" limitTurnSpeed="5.50" xmlns:xsi="http://www.w3.org/2001/XMLSchema-instance" xsi:noNamespaceSchemaLocation="http://sumo.dlr.de/xsd/net_file.xsd">

    <location netOffset="0.00,0.00" convBoundary="0.00,0.00,1000.00,1000.00" origBoundary="0.00,0.00,1000.00,1000.00" projParameter="!"/>

    <edge id=":A0_0" function="internal">
        <lane id=":A0_0_0" index="0" speed="6.51" length="9.03" shape="188.80,216.80 188.45,214.35 187.40,212.60 185.65,211.55 183.20,211.20"/>
    </edge>
    <edge id=":A0_1" function="internal">
        <lane id=":A0_1_0" index="0" speed="13.89" length="33.60" shape="188.80,216.80 188.80,183.20"/>
        <lane id=":A0_1_1" index="1" speed="13.89" length="33.60" shape="192.00,216.80 192.00,183.20"/>
        <lane id=":A0_1_2" index="2" speed="13.89" length="33.60" shape="195.20,216.80 195.20,183.20"/>
        <lane id=":A0_1_3" index="3" speed="13.89" length="33.60" shape="198.40,216.80 198.40,183.20"/>
    </edge>
    <edge id=":A0_5" function="internal">
        <lane id=":A0_5_0" index="0" speed="11.36" length="5.01" shape="198.40,216.80 199.11,211.84"/>
    </edge>
    <edge id=":A0_6" function="internal">
        <lane id=":A0_6_0" index="0" speed="3.65" length="1.44" shape="198.40,216.80 199.20,215.60"/>
    </edge>
    <edge id=":A0_28" function="internal">
        <lane id=":A0_28_0" index="0" speed="11.36" length="24.66" shape="199.11,211.84 199.55,208.75 203.00,203.00 208.75,199.55 216.80,198.40"/>
    </edge>
    <edge id=":A0_29" function="internal">
        <lane id=":A0_29_0" index="0" speed="3.65" length="3.23" shape="199.20,215.60 200.00,215.20 200.80,215.60 201.60,216.80"/>
    </edge>
    <edge id=":A0_7" function="internal">
        <lane id=":A0_7_0" index="0" speed="6.51" length="9.03" shape="216.80,211.20 214.35,211.55 212.60,212.60 211.55,214.35 211.20,216.80"/>
    </edge>
    <edge id=":A0_8" function="internal">
        <lane id=":A0_8_0" index="0" speed="13.89" length="33.60" shape="216.80,211.20 183.20,211.20"/>
        <lane id=":A0_8_1" index="1" speed="13.89" length="33.60" shape="216.80,208.00 183.20,208.00"/>
        <lane id=":A0_8_2" index="2" speed="13.89" length="33.60" shape="216.80,204.80 183.20,204.80"/>
        <lane id=":A0_8_3" index="3" speed="13.89" length="33.60" shape="216.80,201.60 183.20,201.60"/>
    </edge>
    <edge id=":A0_12" function="internal">
        <lane id=":A0_12_0" index="0" speed="11.36" length="5.01" shape="216.80,201.60 211.84,200.89"/>
    </edge>
    <edge id=":A0_13" function="internal">
        <lane id=":A0_13_0" index="0" speed="3.65" length="1.44" shape="216.80,201.60 215.60,200.80"/>
    </edge>
    <edge id=":A0_30" function="internal">
        <lane id=":A0_30_0" index="0" speed="11.36" length="24.66" shape="211.84,200.89 208.75,200.45 203.00,197.00 199.55,191.25 198.40,183.20"/>
    </edge>
    <edge id=":A0_31" function="internal">
        <lane id=":A0_31_0" index="0" speed="3.65" length="3.23" shape="215.60,200.80 215.20,200.00 215.60,199.20 216.80,198.40"/>
    </edge>
    <edge id=":A0_14" function="internal">
        <lane id=":A0_14_0" index="0" speed="6.51" length="9.03" shape="211.20,183.20 211.55,185.65 212.60,187.40 214.35,188.45 216.80,188.80"/>
    </edge>
    <edge id=":A0_15" function="internal">
        <lane id=":A0_15_0" index="0" speed="13.89" length="33.60" shape="211.20,183.20 211.20,216.80"/>
        <lane id=":A0_15_1" index="1" speed="13.89" length="33.60" shape="208.00,183.20 208.00,216.80"/>
        <lane id=":A0_15_2" index="2" speed="13.89" length="33.60" shape="204.80,183.20 204.80,216.80"/>
        <lane id=":A0_15_3" index="3" speed="13.89" length="33.60" shape="201.60,183.20 201.60,216.80"/>
    </edge>
    <edge id=":A0_19" function="internal">
        <lane id=":A0_19_0" index="0" speed="11.36" length="5.01" shape="201.60,183.20 200.89,188.16"/>
    </edge>
    <edge id=":A0_20" function="internal">
        <lane id=":A0_20_0" index="0" speed="3.65" length="1.44" shape="201.60,183.20 200.80,184.40"/>
    </edge>
    <edge id=":A0_32" function="internal">
        <lane id=":A0_32_0" index="0" speed="11.36" length="24.66" shape="200.89,188.16 200.45,191.25 197.00,197.00 191.25,200.45 183.20,201.60"/>
    </edge>
    <edge id=":A0_33" function="internal">
        <lane id=":A0_33_0" index="0" speed="3.65" length="3.23" shape="200.80,184.40 200.00,184.80 199.20,184.40 198.40,183.20"/>
    </edge>
    <edge id=":A0_21" function="internal">
        <lane id=":A0_21_0" index="0" speed="6.51" length="9.03" shape="183.20,188.80 185.65,188.45 187.40,187.40 188.45,185.65 188.80,183.20"/>
    </edge>
    <edge id=":A0_22" function="internal">
        <lane id=":A0_22_0" index="0" speed="13.89" length="33.60" shape="183.20,188.80 216.80,188.80"/>
        <lane id=":A0_22_1" index="1" speed="13.89" length="33.60" shape="183.20,192.00 216.80,192.00"/>
        <lane id=":A0_22_2" index="2" speed="13.89" length="33.60" shape="183.20,195.20 216.80,195.20"/>
        <lane id=":A0_22_3" index="3" speed="13.89" length="33.60" shape="183.20,198.40 216.80,198.40"/>
    </edge>
    <edge id=":A0_26" function="internal">
        <lane id=":A0_26_0" index="0" speed="11.36" length="5.01" shape="183.20,198.40 188.16,199.11"/>
    </edge>
    <edge id=":A0_27" function="internal">
        <lane id=":A0_27_0" index="0" speed="3.65" length="1.44" shape="183.20,198.40 184.40,199.20"/>
    </edge>
    <edge id=":A0_34" function="internal">
        <lane id=":A0_34_0" index="0" speed="11.36" length="24.66" shape="188.16,199.11 191.25,199.55 197.00,203.00 200.45,208.75 201.60,216.80"/>
    </edge>
    <edge id=":A0_35" function="internal">
        <lane id=":A0_35_0" index="0" speed="3.65" length="3.23" shape="184.40,199.20 184.80,200.00 184.40,200.80 183.20,201.60"/>
    </edge>
    <edge id=":A1_0" function="internal">
        <lane id=":A1_0_0" index="0" speed="6.51" length="9.03" shape="188.80,516.80 188.45,514.35 187.40,512.60 185.65,511.55 183.20,511.20"/>
    </edge>
    <edge id=":A1_1" function="internal">
        <lane id=":A1_1_0" index="0" speed="13.89" length="33.60" shape="188.80,516.80 188.80,483.20"/>
        <lane id=":A1_1_1" index="1" speed="13.89" length="33.60" shape="192.00,516.80 192.00,483.20"/>
        <lane id=":A1_1_2" index="2" speed="13.89" length="33.60" shape="195.20,516.80 195.20,483.20"/>
        <lane id=":A1_1_3" index="3" speed="13.89" length="33.60" shape="198.40,516.80 198.40,483.20"/>
    </edge>
    <edge id=":A1_5" function="internal">
        <lane id=":A1_5_0" index="0" speed="11.36" length="5.01" shape="198.40,516.80 199.11,511.84"/>
    </edge>
    <edge id=":A1_6" function="internal">
        <lane id=":A1_6_0" index="0" speed="3.65" length="1.44" shape="198.40,516.80 199.20,515.60"/>
    </edge>
    <edge id=":A1_28" function="internal">
        <lane id=":A1_28_0" index="0" speed="11.36" length="24.66" shape="199.11,511.84 199.55,508.75 203.00,503.00 208.75,499.55 216.80,498.40"/>
    </edge>
    <edge id=":A1_29" function="internal">
        <lane id=":A1_29_0" index="0" speed="3.65" length="3.23" shape="199.20,515.60 200.00,515.20 200.80,515.60 201.60,516.80"/>
    </edge>
    <edge id=":A1_7" function="internal">
        <lane id=":A1_7_0" index="0" speed="6.51" length="9.03" shape="216.80,511.20 214.35,511.55 212.60,512.60 211.55,514.35 211.20,516.80"/>
    </edge>
    <edge id=":A1_8" function="internal">
        <lane id=":A1_8_0" index="0" speed="13.89" length="33.60" shape="216.80,511.20 183.20,511.20"/>
        <lane id=":A1_8_1" index="1" speed="13.89" length="33.60" shape="216.80,508.00 183.20,508.00"/>
        <lane id=":A1_8_2" index="2" speed="13.89" length="33.60" shape="216.80,504.80 183.20,504.80"/>
        <lane id=":A1_8_3" index="3" speed="13.89" length="33.60" shape="216.80,501.60 183.20,501.60"/>
    </edge>
    <edge id=":A1_12" function="internal">
        <lane id=":A1_12_0" index="0" speed="11.36" length="5.01" shape="216.80,501.60 211.84,500.89"/>
    </edge>
    <edge id=":A1_13" function="internal">
        <lane id=":A1_13_0" index="0" speed="3.65" length="1.44" shape="216.80,501.60 215.60,500.80"/>
    </edge>
    <edge id=":A1_30" function="internal">
        <lane id=":A1_30_0" index="0" speed="11.36" length="24.66" shape="211.84,500.89 208.75,500.45 203.00,497.00 199.55,491.25 198.40,483.20"/>
    </edge>
    <edge id=":A1_31" function="internal">
        <lane id=":A1_31_0" index="0" speed="3.65" length="3.23" shape="215.60,500.80 215.20,500.00 215.60,499.20 216.80,498.40"/>
    </edge>
    <edge id=":A1_14" function="internal">
        <lane id=":A1_14_0" index="0" speed="6.51" length="9.03" shape="211.20,483.20 211.55,485.65 212.60,487.40 214.35,488.45 216.80,488.80"/>
    </edge>
    <edge id=":A1_15" function="internal">
        <lane id=":A1_15_0" index="0" speed="13.89" length="33.60" shape="211.20,483.20 211.20,516.80"/>
        <lane id=":A1_15_1" index="1" speed="13.89" length="33.60" shape="208.00,483.20 208.00,516.80"/>
        <lane id=":A1_15_2" index="2" speed="13.89" length="33.60" shape="204.80,483.20 204.80,516.80"/>
        <lane id=":A1_15_3" index="3" speed="13.89" length="33.60" shape="201.60,483.20 201.60,516.80"/>
    </edge>
    <edge id=":A1_19" function="internal">
        <lane id=":A1_19_0" index="0" speed="11.36" length="5.01" shape="201.60,483.20 200.89,488.16"/>
    </edge>
    <edge id=":A1_20" function="internal">
        <lane id=":A1_20_0" index="0" speed="3.65" length="1.44" shape="201.60,483.20 200.80,484.40"/>
    </edge>
    <edge id=":A1_32" function="internal">
        <lane id=":A1_32_0" index="0" speed="11.36" length="24.66" shape="200.89,488.16 200.45,491.25 197.00,497.00 191.25,500.45 183.20,501.60"/>
    </edge>
    <edge id=":A1_33" function="internal">
        <lane id=":A1_33_0" index="0" speed="3.65" length="3.23" shape="200.80,484.40 200.00,484.80 199.20,484.40 198.40,483.20"/>
    </edge>
    <edge id=":A1_21" function="internal">
        <lane id=":A1_21_0" index="0" speed="6.51" length="9.03" shape="183.20,488.80 185.65,488.45 187.40,487.40 188.45,485.65 188.80,483.20"/>
    </edge>
    <edge id=":A1_22" function="internal">
        <lane id=":A1_22_0" index="0" speed="13.89" length="33.60" shape="183.20,488.80 216.80,488.80"/>
        <lane id=":A1_22_1" index="1" speed="13.89" length="33.60" shape="183.20,492.00 216.80,492.00"/>
        <lane id=":A1_22_2" index="2" speed="13.89" length="33.60" shape="183.20,495.20 216.80,495.20"/>
        <lane id=":A1_22_3" index="3" speed="13.89" length="33.60" shape="183.20,498.40 216.80,498.40"/>
    </edge>
    <edge id=":A1_26" function="internal">
        <lane id=":A1_26_0" index="0" speed="11.36" length="5.01" shape="183.20,498.40 188.16,499.11"/>
    </edge>
    <edge id=":A1_27" function="internal">
        <lane id=":A1_27_0" index="0" speed="3.65" length="1.44" shape="183.20,498.40 184.40,499.20"/>
    </edge>
    <edge id=":A1_34" function="internal">
        <lane id=":A1_34_0" index="0" speed="11.36" length="24.66" shape="188.16,499.11 191.25,499.55 197.00,503.00 200.45,508.75 201.60,516.80"/>
    </edge>
    <edge id=":A1_35" function="internal">
        <lane id=":A1_35_0" index="0" speed="3.65" length="3.23" shape="184.40,499.20 184.80,500.00 184.40,500.80 183.20,501.60"/>
    </edge>
    <edge id=":A2_0" function="internal">
        <lane id=":A2_0_0" index="0" speed="6.51" length="9.03" shape="188.80,816.80 188.45,814.35 187.40,812.60 185.65,811.55 183.20,811.20"/>
    </edge>
    <edge id=":A2_1" function="internal">
        <lane id=":A2_1_0" index="0" speed="13.89" length="33.60" shape="188.80,816.80 188.80,783.20"/>
        <lane id=":A2_1_1" index="1" speed="13.89" length="33.60" shape="192.00,816.80 192.00,783.20"/>
        <lane id=":A2_1_2" index="2" speed="13.89" length="33.60" shape="195.20,816.80 195.20,783.20"/>
        <lane id=":A2_1_3" index="3" speed="13.89" length="33.60" shape="198.40,816.80 198.40,783.20"/>
    </edge>
    <edge id=":A2_5" function="internal">
        <lane id=":A2_5_0" index="0" speed="11.36" length="5.01" shape="198.40,816.80 199.11,811.84"/>
    </edge>
    <edge id=":A2_6" function="internal">
        <lane id=":A2_6_0" index="0" speed="3.65" length="1.44" shape="198.40,816.80 199.20,815.60"/>
    </edge>
    <edge id=":A2_28" function="internal">
        <lane id=":A2_28_0" index="0" speed="11.36" length="24.66" shape="199.11,811.84 199.55,808.75 203.00,803.00 208.75,799.55 216.80,798.40"/>
    </edge>
    <edge id=":A2_29" function="internal">
        <lane id=":A2_29_0" index="0" speed="3.65" length="3.23" shape="199.20,815.60 200.00,815.20 200.80,815.60 201.60,816.80"/>
    </edge>
    <edge id=":A2_7" function="internal">
        <lane id=":A2_7_0" index="0" speed="6.51" length="9.03" shape="216.80,811.20 214.35,811.55 212.60,812.60 211.55,814.35 211.20,816.80"/>
    </edge>
    <edge id=":A2_8" function="internal">
        <lane id=":A2_8_0" index="0" speed="13.89" length="33.60" shape="216.80,811.20 183.20,811.20"/>
        <lane id=":A2_8_1" index="1" speed="13.89" length="33.60" shape="216.80,808.00 183.20,808.00"/>
        <lane id=":A2_8_2" index="2" speed="13.89" length="33.60" shape="216.80,804.80 183.20,804.80"/>
        <lane id=":A2_8_3" index="3" speed="13.89" length="33.60" shape="216.80,801.60 183.20,801.60"/>
    </edge>
    <edge id=":A2_12" function="internal">
        <lane id=":A2_12_0" index="0" speed="11.36" length="5.01" shape="216.80,801.60 211.84,800.89"/>
    </edge>
    <edge id=":A2_13" function="internal">
        <lane id=":A2_13_0" index="0" speed="3.65" length="1.44" shape="216.80,801.60 215.60,800.80"/>
    </edge>
    <edge id=":A2_30" function="internal">
        <lane id=":A2_30_0" index="0" speed="11.36" length="24.66" shape="211.84,800.89 208.75,800.45 203.00,797.00 199.55,791.25 198.40,783.20"/>
    </edge>
    <edge id=":A2_31" function="internal">
        <lane id=":A2_31_0" index="0" speed="3.65" length="3.23" shape="215.60,800.80 215.20,800.00 215.60,799.20 216.80,798.40"/>
    </edge>
    <edge id=":A2_14" function="internal">
        <lane id=":A2_14_0" index="0" speed="6.51" length="9.03" shape="211.20,783.20 211.55,785.65 212.60,787.40 214.35,788.45 216.80,788.80"/>
    </edge>
    <edge id=":A2_15" function="internal">
        <lane id=":A2_15_0" index="0" speed="13.89" length="33.60" shape="211.20,783.20 211.20,816.80"/>
        <lane id=":A2_15_1" index="1" speed="13.89" length="33.60" shape="208.00,783.20 208.00,816.80"/>
        <lane id=":A2_15_2" index="2" speed="13.89" length="33.60" shape="204.80,783.20 204.80,816.80"/>
        <lane id=":A2_15_3" index="3" speed="13.89" length="33.60" shape="201.60,783.20 201.60,816.80"/>
    </edge>
    <edge id=":A2_19" function="internal">
        <lane id=":A2_19_0" index="0" speed="11.36" length="5.01" shape="201.60,783.20 200.89,788.16"/>
    </edge>
    <edge id=":A2_20" function="internal">
        <lane id=":A2_20_0" index="0" speed="3.65" length="1.44" shape="201.60,783.20 200.80,784.40"/>
    </edge>
    <edge id=":A2_32" function="internal">
        <lane id=":A2_32_0" index="0" speed="11.36" length="24.66" shape="200.89,788.16 200.45,791.25 197.00,797.00 191.25,800.45 183.20,801.60"/>
    </edge>
    <edge id=":A2_33" function="internal">
        <lane id=":A2_33_0" index="0" speed="3.65" length="3.23" shape="200.80,784.40 200.00,784.80 199.20,784.40 198.40,783.20"/>
    </edge>
    <edge id=":A2_21" function="internal">
        <lane id=":A2_21_0" index="0" speed="6.51" length="9.03" shape="183.20,788.80 185.65,788.45 187.40,787.40 188.45,785.65 188.80,783.20"/>
    </edge>
    <edge id=":A2_22" function="internal">
        <lane id=":A2_22_0" index="0" speed="13.89" length="33.60" shape="183.20,788.80 216.80,788.80"/>
        <lane id=":A2_22_1" index="1" speed="13.89" length="33.60" shape="183.20,792.00 216.80,792.00"/>
        <lane id=":A2_22_2" index="2" speed="13.89" length="33.60" shape="183.20,795.20 216.80,795.20"/>
        <lane id=":A2_22_3" index="3" speed="13.89" length="33.60" shape="183.20,798.40 216.80,798.40"/>
    </edge>
    <edge id=":A2_26" function="internal">
        <lane id=":A2_26_0" index="0" speed="11.36" length="5.01" shape="183.20,798.40 188.16,799.11"/>
    </edge>
    <edge id=":A2_27" function="internal">
        <lane id=":A2_27_0" index="0" speed="3.65" length="1.44" shape="183.20,798.40 184.40,799.20"/>
    </edge>
    <edge id=":A2_34" function="internal">
        <lane id=":A2_34_0" index="0" speed="11.36" length="24.66" shape="188.16,799.11 191.25,799.55 197.00,803.00 200.45,808.75 201.60,816.80"/>
    </edge>
    <edge id=":A2_35" function="internal">
        <lane id=":A2_35_0" index="0" speed="3.65" length="3.23" shape="184.40,799.20 184.80,800.00 184.40,800.80 183.20,801.60"/>
    </edge>
    <edge id=":B0_0" function="internal">
        <lane id=":B0_0_0" index="0" speed="6.51" length="9.03" shape="488.80,216.80 488.45,214.35 487.40,212.60 485.65,211.55 483.20,211.20"/>
    </edge>
    <edge id=":B0_1" function="internal">
        <lane id=":B0_1_0" index="0" speed="13.89" length="33.60" shape="488.80,216.80 488.80,183.20"/>
        <lane id=":B0_1_1" index="1" speed="13.89" length="33.60" shape="492.00,216.80 492.00,183.20"/>
        <lane id=":B0_1_2" index="2" speed="13.89" length="33.60" shape="495.20,216.80 495.20,183.20"/>
        <lane id=":B0_1_3" index="3" speed="13.89" length="33.60" shape="498.40,216.80 498.40,183.20"/>
    </edge>
    <edge id=":B0_5" function="internal">
        <lane id=":B0_5_0" index="0" speed="11.36" length="5.01" shape="498.40,216.80 499.11,211.84"/>
    </edge>
    <edge id=":B0_6" function="internal">
        <lane id=":B0_6_0" index="0" speed="3.65" length="1.44" shape="498.40,216.80 499.20,215.60"/>
    </edge>
    <edge id=":B0_28" function="internal">
        <lane id=":B0_28_0" index="0" speed="11.36" length="24.66" shape="499.11,211.84 499.55,208.75 503.00,203.00 508.75,199.55 516.80,198.40"/>
    </edge>
    <edge id=":B0_29" function="internal">
        <lane id=":B0_29_0" index="0" speed="3.65" length="3.23" shape="499.20,215.60 500.00,215.20 500.80,215.60 501.60,216.80"/>
    </edge>
    <edge id=":B0_7" function="internal">
        <lane id=":B0_7_0" index="0" speed="6.51" length="9.03" shape="516.80,211.20 514.35,211.55 512.60,212.60 511.55,214.35 511.20,216.80"/>
    </edge>
    <edge id=":B0_8" function="internal">
        <lane id=":B0_8_0" index="0" speed="13.89" length="33.60" shape="516.80,211.20 483.20,211.20"/>
        <lane id=":B0_8_1" index="1" speed="13.89" length="33.60" shape="516.80,208.00 483.20,208.00"/>
        <lane id=":B0_8_2" index="2" speed="13.89" length="33.60" shape="516.80,204.80 483.20,204.80"/>
        <lane id=":B0_8_3" index="3" speed="13.89" length="33.60" shape="516.80,201.60 483.20,201.60"/>
    </edge>
    <edge id=":B0_12" function="internal">
        <lane id=":B0_12_0" index="0" speed="11.36" length="5.01" shape="516.80,201.60 511.84,200.89"/>
    </edge>
    <edge id=":B0_13" function="internal">
        <lane id=":B0_13_0" index="0" speed="3.65" length="1.44" shape="516.80,201.60 515.60,200.80"/>
    </edge>
    <edge id=":B0_30" function="internal">
        <lane id=":B0_30_0" index="0" speed="11.36" length="24.66" shape="511.84,200.89 508.75,200.45 503.00,197.00 499.55,191.25 498.40,183.20"/>
    </edge>
    <edge id=":B0_31" function="internal">
        <lane id=":B0_31_0" index="0" speed="3.65" length="3.23" shape="515.60,200.80 515.20,200.00 515.60,199.20 516.80,198.40"/>
    </edge>
    <edge id=":B0_14" function="internal">
        <lane id=":B0_14_0" index="0" speed="6.51" length="9.03" shape="511.20,183.20 511.55,185.65 512.60,187.40 514.35,188.45 516.80,188.80"/>
    </edge>
    <edge id=":B0_15" function="internal">
        <lane id=":B0_15_0" index="0" speed="13.89" length="33.60" shape="511.20,183.20 511.20,216.80"/>
        <lane id=":B0_15_1" index="1" speed="13.89" length="33.60" shape="508.00,183.20 508.00,216.80"/>
        <lane id=":B0_15_2" index="2" speed="13.89" length="33.60" shape="504.80,183.20 504.80,216.80"/>
        <lane id=":B0_15_3" index="3" speed="13.89" length="33.60" shape="501.60,183.20 501.60,216.80"/>
    </edge>
    <edge id=":B0_19" function="internal">
        <lane id=":B0_19_0" index="0" speed="11.36" length="5.01" shape="501.60,183.20 500.89,188.16"/>
    </edge>
    <edge id=":B0_20" function="internal">
        <lane id=":B0_20_0" index="0" speed="3.65" length="1.44" shape="501.60,183.20 500.80,184.40"/>
    </edge>
    <edge id=":B0_32" function="internal">
        <lane id=":B0_32_0" index="0" speed="11.36" length="24.66" shape="500.89,188.16 500.45,191.25 497.00,197.00 491.25,200.45 483.20,201.60"/>
    </edge>
    <edge id=":B0_33" function="internal">
        <lane id=":B0_33_0" index="0" speed="3.65" length="3.23" shape="500.80,184.40 500.00,184.80 499.20,184.40 498.40,183.20"/>
    </edge>
    <edge id=":B0_21" function="internal">
        <lane id=":B0_21_0" index="0" speed="6.51" length="9.03" shape="483.20,188.80 485.65,188.45 487.40,187.40 488.45,185.65 488.80,183.20"/>
    </edge>
    <edge id=":B0_22" function="internal">
        <lane id=":B0_22_0" index="0" speed="13.89" length="33.60" shape="483.20,188.80 516.80,188.80"/>
        <lane id=":B0_22_1" index="1" speed="13.89" length="33.60" shape="483.20,192.00 516.80,192.00"/>
        <lane id=":B0_22_2" index="2" speed="13.89" length="33.60" shape="483.20,195.20 516.80,195.20"/>
        <lane id=":B0_22_3" index="3" speed="13.89" length="33.60" shape="483.20,198.40 516.80,198.40"/>
    </edge>
    <edge id=":B0_26" function="internal">
        <lane id=":B0_26_0" index="0" speed="11.36" length="5.01" shape="483.20,198.40 488.16,199.11"/>
    </edge>
    <edge id=":B0_27" function="internal">
        <lane id=":B0_27_0" index="0" speed="3.65" length="1.44" shape="483.20,198.40 484.40,199.20"/>
    </edge>
    <edge id=":B0_34" function="internal">
        <lane id=":B0_34_0" index="0" speed="11.36" length="24.66" shape="488.16,199.11 491.25,199.55 497.00,203.00 500.45,208.75 501.60,216.80"/>
    </edge>
    <edge id=":B0_35" function="internal">
        <lane id=":B0_35_0" index="0" speed="3.65" length="3.23" shape="484.40,199.20 484.80,200.00 484.40,200.80 483.20,201.60"/>
    </edge>
    <edge id=":B1_0" function="internal">
        <lane id=":B1_0_0" index="0" speed="6.51" length="9.03" shape="488.80,516.80 488.45,514.35 487.40,512.60 485.65,511.55 483.20,511.20"/>
    </edge>
    <edge id=":B1_1" function="internal">
        <lane id=":B1_1_0" index="0" speed="13.89" length="33.60" shape="488.80,516.80 488.80,483.20"/>
        <lane id=":B1_1_1" index="1" speed="13.89" length="33.60" shape="492.00,516.80 492.00,483.20"/>
        <lane id=":B1_1_2" index="2" speed="13.89" length="33.60" shape="495.20,516.80 495.20,483.20"/>
        <lane id=":B1_1_3" index="3" speed="13.89" length="33.60" shape="498.40,516.80 498.40,483.20"/>
    </edge>
    <edge id=":B1_5" function="internal">
        <lane id=":B1_5_0" index="0" speed="11.36" length="5.01" shape="498.40,516.80 499.11,511.84"/>
    </edge>
    <edge id=":B1_6" function="internal">
        <lane id=":B1_6_0" index="0" speed="3.65" length="1.44" shape="498.40,516.80 499.20,515.60"/>
    </edge>
    <edge id=":B1_28" function="internal">
        <lane id=":B1_28_0" index="0" speed="11.36" length="24.66" shape="499.11,511.84 499.55,508.75 503.00,503.00 508.75,499.55 516.80,498.40"/>
    </edge>
    <edge id=":B1_29" function="internal">
        <lane id=":B1_29_0" index="0" speed="3.65" length="3.23" shape="499.20,515.60 500.00,515.20 500.80,515.60 501.60,516.80"/>
    </edge>
    <edge id=":B1_7" function="internal">
        <lane id=":B1_7_0" index="0" speed="6.51" length="9.03" shape="516.80,511.20 514.35,511.55 512.60,512.60 511.55,514.35 511.20,516.80"/>
    </edge>
    <edge id=":B1_8" function="internal">
        <lane id=":B1_8_0" index="0" speed="13.89" length="33.60" shape="516.80,511.20 483.20,511.20"/>
        <lane id=":B1_8_1" index="1" speed="13.89" length="33.60" shape="516.80,508.00 483.20,508.00"/>
        <lane id=":B1_8_2" index="2" speed="13.89" length="33.60" shape="516.80,504.80 483.20,504.80"/>
        <lane id=":B1_8_3" index="3" speed="13.89" length="33.60" shape="516.80,501.60 483.20,501.60"/>
    </edge>
    <edge id=":B1_12" function="internal">
        <lane id=":B1_12_0" index="0" speed="11.36" length="5.01" shape="516.80,501.60 511.84,500.89"/>
    </edge>
    <edge id=":B1_13" function="internal">
        <lane id=":B1_13_0" index="0" speed="3.65" length="1.44" shape="516.80,501.60 515.60,500.80"/>
    </edge>
    <edge id=":B1_30" function="internal">
        <lane id=":B1_30_0" index="0" speed="11.36" length="24.66" shape="511.84,500.89 508.75,500.45 503.00,497.00 499.55,491.25 498.40,483.20"/>
    </edge>
    <edge id=":B1_31" function="internal">
        <lane id=":B1_31_0" index="0" speed="3.65" length="3.23" shape="515.60,500.80 515.20,500.00 515.60,499.20 516.80,498.40"/>
    </edge>
    <edge id=":B1_14" function="internal">
        <lane id=":B1_14_0" index="0" speed="6.51" length="9.03" shape="511.20,483.20 511.55,485.65 512.60,487.40 514.35,488.45 516.80,488.80"/>
    </edge>
    <edge id=":B1_15" function="internal">
        <lane id=":B1_15_0" index="0" speed="13.89" length="33.60" shape="511.20,483.20 511.20,516.80"/>
        <lane id=":B1_15_1" index="1" speed="13.89" length="33.60" shape="508.00,483.20 508.00,516.80"/>
        <lane id=":B1_15_2" index="2" speed="13.89" length="33.60" shape="504.80,483.20 504.80,516.80"/>
        <lane id=":B1_15_3" index="3" speed="13.89" length="33.60" shape="501.60,483.20 501.60,516.80"/>
    </edge>
    <edge id=":B1_19" function="internal">
        <lane id=":B1_19_0" index="0" speed="11.36" length="5.01" shape="501.60,483.20 500.89,488.16"/>
    </edge>
    <edge id=":B1_20" function="internal">
        <lane id=":B1_20_0" index="0" speed="3.65" length="1.44" shape="501.60,483.20 500.80,484.40"/>
    </edge>
    <edge id=":B1_32" function="internal">
        <lane id=":B1_32_0" index="0" speed="11.36" length="24.66" shape="500.89,488.16 500.45,491.25 497.00,497.00 491.25,500.45 483.20,501.60"/>
    </edge>
    <edge id=":B1_33" function="internal">
        <lane id=":B1_33_0" index="0" speed="3.65" length="3.23" shape="500.80,484.40 500.00,484.80 499.20,484.40 498.40,483.20"/>
    </edge>
    <edge id=":B1_21" function="internal">
        <lane id=":B1_21_0" index="0" speed="6.51" length="9.03" shape="483.20,488.80 485.65,488.45 487.40,487.40 488.45,485.65 488.80,483.20"/>
    </edge>
    <edge id=":B1_22" function="internal">
        <lane id=":B1_22_0" index="0" speed="13.89" length="33.60" shape="483.20,488.80 516.80,488.80"/>
        <lane id=":B1_22_1" index="1" speed="13.89" length="33.60" shape="483.20,492.00 516.80,492.00"/>
        <lane id=":B1_22_2" index="2" speed="13.89" length="33.60" shape="483.20,495.20 516.80,495.20"/>
        <lane id=":B1_22_3" index="3" speed="13.89" length="33.60" shape="483.20,498.40 516.80,498.40"/>
    </edge>
    <edge id=":B1_26" function="internal">
        <lane id=":B1_26_0" index="0" speed="11.36" length="5.01" shape="483.20,498.40 488.16,499.11"/>
    </edge>
    <edge id=":B1_27" function="internal">
        <lane id=":B1_27_0" index="0" speed="3.65" length="1.44" shape="483.20,498.40 484.40,499.20"/>
    </edge>
    <edge id=":B1_34" function="internal">
        <lane id=":B1_34_0" index="0" speed="11.36" length="24.66" shape="488.16,499.11 491.25,499.55 497.00,503.00 500.45,508.75 501.60,516.80"/>
    </edge>
    <edge id=":B1_35" function="internal">
        <lane id=":B1_35_0" index="0" speed="3.65" length="3.23" shape="484.40,499.20 484.80,500.00 484.40,500.80 483.20,501.60"/>
    </edge>
    <edge id=":B2_0" function="internal">
        <lane id=":B2_0_0" index="0" speed="6.51" length="9.03" shape="488.80,816.80 488.45,814.35 487.40,812.60 485.65,811.55 483.20,811.20"/>
    </edge>
    <edge id=":B2_1" function="internal">
        <lane id=":B2_1_0" index="0" speed="13.89" length="33.60" shape="488.80,816.80 488.80,783.20"/>
        <lane id=":B2_1_1" index="1" speed="13.89" length="33.60" shape="492.00,816.80 492.00,783.20"/>
        <lane id=":B2_1_2" index="2" speed="13.89" length="33.60" shape="495.20,816.80 495.20,783.20"/>
        <lane id=":B2_1_3" index="3" speed="13.89" length="33.60" shape="498.40,816.80 498.40,783.20"/>
    </edge>
    <edge id=":B2_5" function="internal">
        <lane id=":B2_5_0" index="0" speed="11.36" length="5.01" shape="498.40,816.80 499.11,811.84"/>
    </edge>
    <edge id=":B2_6" function="internal">
        <lane id=":B2_6_0" index="0" speed="3.65" length="1.44" shape="498.40,816.80 499.20,815.60"/>
    </edge>
    <edge id=":B2_28" function="internal">
        <lane id=":B2_28_0" index="0" speed="11.36" length="24.66" shape="499.11,811.84 499.55,808.75 503.00,803.00 508.75,799.55 516.80,798.40"/>
    </edge>
    <edge id=":B2_29" function="internal">
        <lane id=":B2_29_0" index="0" speed="3.65" length="3.23" shape="499.20,815.60 500.00,815.20 500.80,815.60 501.60,816.80"/>
    </edge>
    <edge id=":B2_7" function="internal">