<?xml version="1.0" encoding="UTF-8"?>

<!-- generated on 2024-04-09 19:32:44 by Eclipse SUMO netedit Version 1.19.0
<configuration xmlns:xsi="http://www.w3.org/2001/XMLSchema-instance" xsi:noNamespaceSchemaLocation="http://sumo.dlr.de/xsd/neteditConfiguration.xsd">

    <input>
        <sumo-net-file value="road.net.xml"/>
    </input>

    <output>
        <output-file value="road.net.xml"/>
    </output>

    <processing>
        <geometry.min-radius.fix.railways value="false"/>
        <geometry.max-grade.fix value="false"/>
        <offset.disable-normalization value="true"/>
        <lefthand value="0"/>
    </processing>

    <junctions>
        <no-turnarounds value="true"/>
        <junctions.corner-detail value="5"/>
        <junctions.limit-turn-speed value="5.50"/>
        <rectangular-lane-cut value="0"/>
    </junctions>

    <pedestrian>
        <walkingareas value="0"/>
    </pedestrian>

</configuration>
-->

<net version="1.16" junctionCornerDetail="5" limitTurnSpeed="5.50" xmlns:xsi="http://www.w3.org/2001/XMLSchema-instance" xsi:noNamespaceSchemaLocation="http://sumo.dlr.de/xsd/net_file.xsd">

    <location netOffset="0.00,0.00" convBoundary="0.00,0.00,450.00,450.00" origBoundary="0.00,0.00,450.00,450.00" projParameter="!"/>

    <edge id=":A0_0" function="internal">
        <lane id=":A0_0_0" index="0" speed="8.96" length="18.06" shape="-4.80,6.40 -4.10,1.50 -2.00,-2.00 1.50,-4.10 6.40,-4.80"/>
        <lane id=":A0_0_1" index="1" speed="7.66" length="12.90" shape="-1.60,6.40 -1.10,2.90 0.40,0.40 2.90,-1.10 6.40,-1.60"/>
    </edge>
    <edge id=":A0_2" function="internal">
        <lane id=":A0_2_0" index="0" speed="3.90" length="2.58" shape="6.40,4.80 5.70,4.90 5.20,5.20 4.90,5.70 4.80,6.40"/>
        <lane id=":A0_2_1" index="1" speed="6.08" length="7.74" shape="6.40,1.60 4.30,1.90 2.80,2.80 1.90,4.30 1.60,6.40"/>
    </edge>
    <edge id=":A1_0" function="internal">
        <lane id=":A1_0_0" index="0" speed="13.89" length="20.80" shape="-4.80,160.40 -4.80,139.60"/>
        <lane id=":A1_0_1" index="1" speed="13.89" length="20.80" shape="-1.60,160.40 -1.60,139.60"/>
    </edge>
    <edge id=":A1_2" function="internal">
        <lane id=":A1_2_0" index="0" speed="9.26" length="5.01" shape="-1.60,160.40 -0.89,155.44"/>
    </edge>
    <edge id=":A1_9" function="internal">
        <lane id=":A1_9_0" index="0" speed="9.26" length="14.34" shape="-0.89,155.44 -0.85,155.15 1.40,151.40 5.15,149.15 10.40,148.40"/>
    </edge>
    <edge id=":A1_3" function="internal">
        <lane id=":A1_3_0" index="0" speed="6.51" length="9.03" shape="10.40,154.80 7.95,155.15 6.20,156.20 5.15,157.95 4.80,160.40"/>
        <lane id=":A1_3_1" index="1" speed="8.00" length="14.19" shape="10.40,151.60 6.55,152.15 3.80,153.80 2.15,156.55 1.60,160.40"/>
    </edge>
    <edge id=":A1_5" function="internal">
        <lane id=":A1_5_0" index="0" speed="9.26" length="19.35" shape="10.40,151.60 5.15,150.85 1.40,148.60 -0.85,144.85 -1.60,139.60"/>
    </edge>
    <edge id=":A1_6" function="internal">
        <lane id=":A1_6_0" index="0" speed="6.51" length="9.03" shape="4.80,139.60 5.15,142.05 6.20,143.80 7.95,144.85 10.40,145.20"/>
    </edge>
    <edge id=":A1_7" function="internal">
        <lane id=":A1_7_0" index="0" speed="13.89" length="20.80" shape="4.80,139.60 4.80,160.40"/>
        <lane id=":A1_7_1" index="1" speed="13.89" length="20.80" shape="1.60,139.60 1.60,160.40"/>
    </edge>
    <edge id=":A2_0" function="internal">
        <lane id=":A2_0_0" index="0" speed="13.89" length="20.80" shape="-4.80,310.40 -4.80,289.60"/>
        <lane id=":A2_0_1" index="1" speed="13.89" length="20.80" shape="-1.60,310.40 -1.60,289.60"/>
    </edge>
    <edge id=":A2_2" function="internal">
        <lane id=":A2_2_0" index="0" speed="9.26" length="5.01" shape="-1.60,310.40 -0.89,305.44"/>
    </edge>
    <edge id=":A2_9" function="internal">
        <lane id=":A2_9_0" index="0" speed="9.26" length="14.34" shape="-0.89,305.44 -0.85,305.15 1.40,301.40 5.15,299.15 10.40,298.40"/>
    </edge>
    <edge id=":A2_3" function="internal">
        <lane id=":A2_3_0" index="0" speed="6.51" length="9.03" shape="10.40,304.80 7.95,305.15 6.20,306.20 5.15,307.95 4.80,310.40"/>
        <lane id=":A2_3_1" index="1" speed="8.00" length="14.19" shape="10.40,301.60 6.55,302.15 3.80,303.80 2.15,306.55 1.60,310.40"/>
    </edge>
    <edge id=":A2_5" function="internal">
        <lane id=":A2_5_0" index="0" speed="9.26" length="19.35" shape="10.40,301.60 5.15,300.85 1.40,298.60 -0.85,294.85 -1.60,289.60"/>
    </edge>
    <edge id=":A2_6" function="internal">
        <lane id=":A2_6_0" index="0" speed="6.51" length="9.03" shape="4.80,289.60 5.15,292.05 6.20,293.80 7.95,294.85 10.40,295.20"/>
    </edge>
    <edge id=":A2_7" function="internal">
        <lane id=":A2_7_0" index="0" speed="13.89" length="20.80" shape="4.80,289.60 4.80,310.40"/>
        <lane id=":A2_7_1" index="1" speed="13.89" length="20.80" shape="1.60,289.60 1.60,310.40"/>
    </edge>
    <edge id=":A3_0" function="internal">
        <lane id=":A3_0_0" index="0" speed="8.96" length="18.06" shape="6.40,454.80 1.50,454.10 -2.00,452.00 -4.10,448.50 -4.80,443.60"/>
        <lane id=":A3_0_1" index="1" speed="7.66" length="12.90" shape="6.40,451.60 2.90,451.10 0.40,449.60 -1.10,447.10 -1.60,443.60"/>
    </edge>
    <edge id=":A3_2" function="internal">
        <lane id=":A3_2_0" index="0" speed="3.90" length="2.58" shape="4.80,443.60 4.90,444.30 5.20,444.80 5.70,445.10 6.40,445.20"/>
        <lane id=":A3_2_1" index="1" speed="6.08" length="7.74" shape="1.60,443.60 1.90,445.70 2.80,447.20 4.30,448.10 6.40,448.40"/>
    </edge>
    <edge id=":B0_0" function="internal">
        <lane id=":B0_0_0" index="0" speed="6.51" length="9.03" shape="145.20,10.40 144.85,7.95 143.80,6.20 142.05,5.15 139.60,4.80"/>
        <lane id=":B0_0_1" index="1" speed="8.00" length="14.19" shape="148.40,10.40 147.85,6.55 146.20,3.80 143.45,2.15 139.60,1.60"/>
    </edge>
    <edge id=":B0_2" function="internal">
        <lane id=":B0_2_0" index="0" speed="9.26" length="19.35" shape="148.40,10.40 149.15,5.15 151.40,1.40 155.15,-0.85 160.40,-1.60"/>
    </edge>
    <edge id=":B0_3" function="internal">
        <lane id=":B0_3_0" index="0" speed="6.51" length="9.03" shape="160.40,4.80 157.95,5.15 156.20,6.20 155.15,7.95 154.80,10.40"/>
    </edge>
    <edge id=":B0_4" function="internal">
        <lane id=":B0_4_0" index="0" speed="13.89" length="20.80" shape="160.40,4.80 139.60,4.80"/>
        <lane id=":B0_4_1" index="1" speed="13.89" length="20.80" shape="160.40,1.60 139.60,1.60"/>
    </edge>
    <edge id=":B0_6" function="internal">
        <lane id=":B0_6_0" index="0" speed="13.89" length="20.80" shape="139.60,-4.80 160.40,-4.80"/>
        <lane id=":B0_6_1" index="1" speed="13.89" length="20.80" shape="139.60,-1.60 160.40,-1.60"/>
    </edge>
    <edge id=":B0_8" function="internal">
        <lane id=":B0_8_0" index="0" speed="9.26" length="5.01" shape="139.60,-1.60 144.56,-0.89"/>
    </edge>
    <edge id=":B0_9" function="internal">
        <lane id=":B0_9_0" index="0" speed="9.26" length="14.34" shape="144.56,-0.89 144.85,-0.85 148.60,1.40 150.85,5.15 151.60,10.40"/>
    </edge>
    <edge id=":B1_0" function="internal">
        <lane id=":B1_0_0" index="0" speed="6.51" length="9.03" shape="145.20,160.40 144.85,157.95 143.80,156.20 142.05,155.15 139.60,154.80"/>
    </edge>
    <edge id=":B1_1" function="internal">
        <lane id=":B1_1_0" index="0" speed="13.89" length="20.80" shape="145.20,160.40 145.20,139.60"/>
        <lane id=":B1_1_1" index="1" speed="13.89" length="20.80" shape="148.40,160.40 148.40,139.60"/>
    </edge>
    <edge id=":B1_3" function="internal">
        <lane id=":B1_3_0" index="0" speed="9.26" length="5.01" shape="148.40,160.40 149.11,155.44"/>
    </edge>
    <edge id=":B1_16" function="internal">
        <lane id=":B1_16_0" index="0" speed="9.26" length="14.34" shape="149.11,155.44 149.15,155.15 151.40,151.40 155.15,149.15 160.40,148.40"/>
    </edge>
    <edge id=":B1_4" function="internal">
        <lane id=":B1_4_0" index="0" speed="6.51" length="9.03" shape="160.40,154.80 157.95,155.15 156.20,156.20 155.15,157.95 154.80,160.40"/>
    </edge>
    <edge id=":B1_5" function="internal">
        <lane id=":B1_5_0" index="0" speed="13.89" length="20.80" shape="160.40,154.80 139.60,154.80"/>
        <lane id=":B1_5_1" index="1" speed="13.89" length="20.80" shape="160.40,151.60 139.60,151.60"/>
    </edge>
    <edge id=":B1_7" function="internal">
        <lane id=":B1_7_0" index="0" speed="9.26" length="5.01" shape="160.40,151.60 155.44,150.89"/>
    </edge>
    <edge id=":B1_17" function="internal">
        <lane id=":B1_17_0" index="0" speed="9.26" length="14.34" shape="155.44,150.89 155.15,150.85 151.40,148.60 149.15,144.85 148.40,139.60"/>
    </edge>
    <edge id=":B1_8" function="internal">
        <lane id=":B1_8_0" index="0" speed="6.51" length="9.03" shape="154.80,139.60 155.15,142.05 156.20,143.80 157.95,144.85 160.40,145.20"/>
    </edge>
    <edge id=":B1_9" function="internal">
        <lane id=":B1_9_0" index="0" speed="13.89" length="20.80" shape="154.80,139.60 154.80,160.40"/>
        <lane id=":B1_9_1" index="1" speed="13.89" length="20.80" shape="151.60,139.60 151.60,160.40"/>
    </edge>
    <edge id=":B1_11" function="internal">
        <lane id=":B1_11_0" index="0" speed="9.26" length="5.01" shape="151.60,139.60 150.89,144.56"/>
    </edge>
    <edge id=":B1_18" function="internal">
        <lane id=":B1_18_0" index="0" speed="9.26" length="14.34" shape="150.89,144.56 150.85,144.85 148.60,148.60 144.85,150.85 139.60,151.60"/>
    </edge>
    <edge id=":B1_12" function="internal">
        <lane id=":B1_12_0" index="0" speed="6.51" length="9.03" shape="139.60,145.20 142.05,144.85 143.80,143.80 144.85,142.05 145.20,139.60"/>
    </edge>
    <edge id=":B1_13" function="internal">
        <lane id=":B1_13_0" index="0" speed="13.89" length="20.80" shape="139.60,145.20 160.40,145.20"/>
        <lane id=":B1_13_1" index="1" speed="13.89" length="20.80" shape="139.60,148.40 160.40,148.40"/>
    </edge>
    <edge id=":B1_15" function="internal">
        <lane id=":B1_15_0" index="0" speed="9.26" length="5.01" shape="139.60,148.40 144.56,149.11"/>
    </edge>
    <edge id=":B1_19" function="internal">
        <lane id=":B1_19_0" index="0" speed="9.26" length="14.34" shape="144.56,149.11 144.85,149.15 148.60,151.40 150.85,155.15 151.60,160.40"/>
    </edge>
    <edge id=":B2_0" function="internal">
        <lane id=":B2_0_0" index="0" speed="6.51" length="9.03" shape="145.20,310.40 144.85,307.95 143.80,306.20 142.05,305.15 139.60,304.80"/>
    </edge>
    <edge id=":B2_1" function="internal">
        <lane id=":B2_1_0" index="0" speed="13.89" length="20.80" shape="145.20,310.40 145.20,289.60"/>
        <lane id=":B2_1_1" index="1" speed="13.89" length="20.80" shape="148.40,310.40 148.40,289.60"/>
    </edge>
    <edge id=":B2_3" function="internal">
        <lane id=":B2_3_0" index="0" speed="9.26" length="5.01" shape="148.40,310.40 149.11,305.44"/>
    </edge>
    <edge id=":B2_16" function="internal">
        <lane id=":B2_16_0" index="0" speed="9.26" length="14.34" shape="149.11,305.44 149.15,305.15 151.40,301.40 155.15,299.15 160.40,298.40"/>
    </edge>
    <edge id=":B2_4" function="internal">
        <lane id=":B2_4_0" index="0" speed="6.51" length="9.03" shape="160.40,304.80 157.95,305.15 156.20,306.20 155.15,307.95 154.80,310.40"/>
    </edge>
    <edge id=":B2_5" function="internal">
        <lane id=":B2_5_0" index="0" speed="13.89" length="20.80" shape="160.40,304.80 139.60,304.80"/>
        <lane id=":B2_5_1" index="1" speed="13.89" length="20.80" shape="160.40,301.60 139.60,301.60"/>
    </edge>
    <edge id=":B2_7" function="internal">
        <lane id=":B2_7_0" index="0" speed="9.26" length="5.01" shape="160.40,301.60 155.44,300.89"/>
    </edge>
    <edge id=":B2_17" function="internal">
        <lane id=":B2_17_0" index="0" speed="9.26" length="14.34" shape="155.44,300.89 155.15,300.85 151.40,298.60 149.15,294.85 148.40,289.60"/>
    </edge>
    <edge id=":B2_8" function="internal">
        <lane id=":B2_8_0" index="0" speed="6.51" length="9.03" shape="154.80,289.60 155.15,292.05 156.20,293.80 157.95,294.85 160.40,295.20"/>
    </edge>
    <edge id=":B2_9" function="internal">
        <lane id=":B2_9_0" index="0" speed="13.89" length="20.80" shape="154.80,289.60 154.80,310.40"/>
        <lane id=":B2_9_1" index="1" speed="13.89" length="20.80" shape="151.60,289.60 151.60,310.40"/>
    </edge>
    <edge id=":B2_11" function="internal">
        <lane id=":B2_11_0" index="0" speed="9.26" length="5.01" shape="151.60,289.60 150.89,294.56"/>
    </edge>
    <edge id=":B2_18" function="internal">
        <lane id=":B2_18_0" index="0" speed="9.26" length="14.34" shape="150.89,294.56 150.85,294.85 148.60,298.60 144.85,300.85 139.60,301.60"/>
    </edge>
    <edge id=":B2_12" function="internal">
        <lane id=":B2_12_0" index="0" speed="6.51" length="9.03" shape="139.60,295.20 142.05,294.85 143.80,293.80 144.85,292.05 145.20,289.60"/>
    </edge>
    <edge id=":B2_13" function="internal">
        <lane id=":B2_13_0" index="0" speed="13.89" length="20.80" shape="139.60,295.20 160.40,295.20"/>
        <lane id=":B2_13_1" index="1" speed="13.89" length="20.80" shape="139.60,298.40 160.40,298.40"/>
    </edge>
    <edge id=":B2_15" function="internal">
        <lane id=":B2_15_0" index="0" speed="9.26" length="5.01" shape="139.60,298.40 144.56,299.11"/>
    </edge>
    <edge id=":B2_19" function="internal">
        <lane id=":B2_19_0" index="0" speed="9.26" length="14.34" shape="144.56,299.11 144.85,299.15 148.60,301.40 150.85,305.15 151.60,310.40"/>
    </edge>
    <edge id=":B3_0" function="internal">
        <lane id=":B3_0_0" index="0" speed="13.89" length="20.80" shape="160.40,454.80 139.60,454.80"/>
        <lane id=":B3_0_1" index="1" speed="13.89" length="20.80" shape="160.40,451.60 139.60,451.60"/>
    </edge>
    <edge id=":B3_2" function="internal">
        <lane id=":B3_2_0" index="0" speed="9.26" length="5.01" shape="160.40,451.60 155.44,450.89"/>
    </edge>
    <edge id=":B3_9" function="internal">
        <lane id=":B3_9_0" index="0" speed="9.26" length="14.34" shape="155.44,450.89 155.15,450.85 151.40,448.60 149.15,444.85 148.40,439.60"/>
    </edge>
    <edge id=":B3_3" function="internal">
        <lane id=":B3_3_0" index="0" speed="6.51" length="9.03" shape="154.80,439.60 155.15,442.05 156.20,443.80 157.95,444.85 160.40,445.20"/>
        <lane id=":B3_3_1" index="1" speed="8.00" length="14.19" shape="151.60,439.60 152.15,443.45 153.80,446.20 156.55,447.85 160.40,448.40"/>
    </edge>
    <edge id=":B3_5" function="internal">
        <lane id=":B3_5_0" index="0" speed="9.26" length="19.35" shape="151.60,439.60 150.85,444.85 148.60,448.60 144.85,450.85 139.60,451.60"/>
    </edge>
    <edge id=":B3_6" function="internal">
        <lane id=":B3_6_0" index="0" speed="6.51" length="9.03" shape="139.60,445.20 142.05,444.85 143.80,443.80 144.85,442.05 145.20,439.60"/>
    </edge>
    <edge id=":B3_7" function="internal">
        <lane id=":B3_7_0" index="0" speed="13.89" length="20.80" shape="139.60,445.20 160.40,445.20"/>
        <lane id=":B3_7_1" index="1" speed="13.89" length="20.80" shape="139.60,448.40 160.40,448.40"/>
    </edge>
    <edge id=":C0_0" function="internal">
        <lane id=":C0_0_0" index="0" speed="6.51" length="9.03" shape="295.20,10.40 294.85,7.95 293.80,6.20 292.05,5.15 289.60,4.80"/>
        <lane id=":C0_0_1" index="1" speed="8.00" length="14.19" shape="298.40,10.40 297.85,6.55 296.20,3.80 293.45,2.15 289.60,1.60"/>
    </edge>
    <edge id=":C0_2" function="internal">
        <lane id=":C0_2_0" index="0" speed="9.26" length="19.35" shape="298.40,10.40 299.15,5.15 301.40,1.40 305.15,-0.85 310.40,-1.60"/>
    </edge>
    <edge id=":C0_3" function="internal">
        <lane id=":C0_3_0" index="0" speed="6.51" length="9.03" shape="310.40,4.80 307.95,5.15 306.20,6.20 305.15,7.95 304.80,10.40"/>
    </edge>
    <edge id=":C0_4" function="internal">
        <lane id=":C0_4_0" index="0" speed="13.89" length="20.80" shape="310.40,4.80 289.60,4.80"/>
        <lane id=":C0_4_1" index="1" speed="13.89" length="20.80" shape="310.40,1.60 289.60,1.60"/>
    </edge>
    <edge id=":C0_6" function="internal">
        <lane id=":C0_6_0" index="0" speed="13.89" length="20.80" shape="289.60,-4.80 310.40,-4.80"/>
        <lane id=":C0_6_1" index="1" speed="13.89" length="20.80" shape="289.60,-1.60 310.40,-1.60"/>
    </edge>
    <edge id=":C0_8" function="internal">
        <lane id=":C0_8_0" index="0" speed="9.26" length="5.01" shape="289.60,-1.60 294.56,-0.89"/>
    </edge>
    <edge id=":C0_9" function="internal">
        <lane id=":C0_9_0" index="0" speed="9.26" length="14.34" shape="294.56,-0.89 294.85,-0.85 298.60,1.40 300.85,5.15 301.60,10.40"/>
    </edge>
    <edge id=":C1_0" function="internal">
        <lane id=":C1_0_0" index="0" speed="6.51" length="9.03" shape="295.20,160.40 294.85,157.95 293.80,156.20 292.05,155.15 289.60,154.80"/>
    </edge>
    <edge id=":C1_1" function="internal">
        <lane id=":C1_1_0" index="0" speed="13.89" length="20.80" shape="295.20,160.40 295.20,139.60"/>
        <lane id=":C1_1_1" index="1" speed="13.89" length="20.80" shape="298.40,160.40 298.40,139.60"/>
    </edge>
    <edge id=":C1_3" function="internal">
        <lane id=":C1_3_0" index="0" speed="9.26" length="5.01" shape="298.40,160.40 299.11,155.44"/>
    </edge>
    <edge id=":C1_16" function="internal">
        <lane id=":C1_16_0" index="0" speed="9.26" length="14.34" shape="299.11,155.44 299.15,155.15 301.40,151.40 305.15,149.15 310.40,148.40"/>
    </edge>
    <edge id=":C1_4" function="internal">
        <lane id=":C1_4_0" index="0" speed="6.51" length="9.03" shape="310.40,154.80 307.95,155.15 306.20,156.20 305.15,157.95 304.80,160.40"/>
    </edge>
    <edge id=":C1_5" function="internal">
        <lane id=":C1_5_0" index="0" speed="13.89" length="20.80" shape="310.40,154.80 289.60,154.80"/>
        <lane id=":C1_5_1" index="1" speed="13.89" length="20.80" shape="310.40,151.60 289.60,151.60"/>
    </edge>
    <edge id=":C1_7" function="internal">
        <lane id=":C1_7_0" index="0" speed="9.26" length="5.01" shape="310.40,151.60 305.44,150.89"/>
    </edge>
    <edge id=":C1_17" function="internal">
        <lane id=":C1_17_0" index="0" speed="9.26" length="14.34" shape="305.44,150.89 305.15,150.85 301.40,148.60 299.15,144.85 298.40,139.60"/>
    </edge>
    <edge id=":C1_8" function="internal">
        <lane id=":C1_8_0" index="0" speed="6.51" length="9.03" shape="304.80,139.60 305.15,142.05 306.20,143.80 307.95,144.85 310.40,145.20"/>
    </edge>
    <edge id=":C1_9" function="internal">
        <lane id=":C1_9_0" index="0" speed="13.89" length="20.80" shape="304.80,139.60 304.80,160.40"/>
        <lane id=":C1_9_1" index="1" speed="13.89" length="20.80" shape="301.60,139.60 301.60,160.40"/>
    </edge>
    <edge id=":C1_11" function="internal">
        <lane id=":C1_11_0" index="0" speed="9.26" length="5.01" shape="301.60,139.60 300.89,144.56"/>
    </edge>
    <edge id=":C1_18" function="internal">
        <lane id=":C1_18_0" index="0" speed="9.26" length="14.34" shape="300.89,144.56 300.85,144.85 298.60,148.60 294.85,150.85 289.60,151.60"/>
    </edge>
    <edge id=":C1_12" function="internal">
        <lane id=":C1_12_0" index="0" speed="6.51" length="9.03" shape="289.60,145.20 292.05,144.85 293.80,143.80 294.85,142.05 295.20,139.60"/>
    </edge>
    <edge id=":C1_13" function="internal">
        <lane id=":C1_13_0" index="0" speed="13.89" length="20.80" shape="289.60,145.20 310.40,145.20"/>
        <lane id=":C1_13_1" index="1" speed="13.89" length="20.80" shape="289.60,148.40 310.40,148.40"/>
    </edge>
    <edge id=":C1_15" function="internal">
        <lane id=":C1_15_0" index="0" speed="9.26" length="5.01" shape="289.60,148.40 294.56,149.11"/>
    </edge>
    <edge id=":C1_19" function="internal">
        <lane id=":C1_19_0" index="0" speed="9.26" length="14.34" shape="294.56,149.11 294.85,149.15 298.60,151.40 300.85,155.15 301.60,160.40"/>
    </edge>
    <edge id=":C2_0" function="internal">
        <lane id=":C2_0_0" index="0" speed="6.51" length="9.03" shape="295.20,310.40 294.85,307.95 293.80,306.20 292.05,305.15 289.60,304.80"/>
    </edge>
    <edge id=":C2_1" function="internal">
        <lane id=":C2_1_0" index="0" speed="13.89" length="20.80" shape="295.20,310.40 295.20,289.60"/>
        <lane id=":C2_1_1" index="1" speed="13.89" length="20.80" shape="298.40,310.40 298.40,289.60"/>
    </edge>
    <edge id=":C2_3" function="internal">
        <lane id=":C2_3_0" index="0" speed="9.26" length="5.01" shape="298.40,310.40 299.11,305.44"/>
    </edge>
    <edge id=":C2_16" function="internal">
        <lane id=":C2_16_0" index="0" speed="9.26" length="14.34" shape="299.11,305.44 299.15,305.15 301.40,301.40 305.15,299.15 310.40,298.40"/>
    </edge>
    <edge id=":C2_4" function="internal">
        <lane id=":C2_4_0" index="0" speed="6.51" length="9.03" shape="310.40,304.80 307.95,305.15 306.20,306.20 305.15,307.95 304.80,310.40"/>
    </edge>
    <edge id=":C2_5" function="internal">
        <lane id=":C2_5_0" index="0" speed="13.89" length="20.80" shape="310.40,304.80 289.60,304.80"/>
        <lane id=":C2_5_1" index="1" speed="13.89" length="20.80" shape="310.40,301.60 289.60,301.60"/>
    </edge>
    <edge id=":C2_7" function="internal">
        <lane id=":C2_7_0" index="0" speed="9.26" length="5.01" shape="310.40,301.60 305.44,300.89"/>
    </edge>
    <edge id=":C2_17" function="internal">
        <lane id=":C2_17_0" index="0" speed="9.26" length="14.34" shape="305.44,300.89 305.15,300.85 301.40,298.60 299.15,294.85 298.40,289.60"/>
    </edge>
    <edge id=":C2_8" function="internal">
        <lane id=":C2_8_0" index="0" speed="6.51" length="9.03" shape="304.80,289.60 305.15,292.05 306.20,293.80 307.95,294.85 310.40,295.20"/>
    </edge>
    <edge id=":C2_9" function="internal">
        <lane id=":C2_9_0" index="0" speed="13.89" length="20.80" shape="304.80,289.60 304.80,310.40"/>
        <lane id=":C2_9_1" index="1" speed="13.89" length="20.80" shape="301.60,289.60 301.60,310.40"/>
    </edge>
    <edge id=":C2_11" function="internal">
        <lane id=":C2_11_0" index="0" speed="9.26" length="5.01" shape="301.60,289.60 300.89,294.56"/>
    </edge>
    <edge id=":C2_18" function="internal">
        <lane id=":C2_18_0" index="0" speed="9.26" length="14.34" shape="300.89,294.56 300.85,294.85 298.60,298.60 294.85,300.85 289.60,301.60"/>
    </edge>
    <edge id=":C2_12" function="internal">
        <lane id=":C2_12_0" index="0" speed="6.51" length="9.03" shape="289.60,295.20 292.05,294.85 293.80,293.80 294.85,292.05 295.20,289.60"/>
    </edge>
    <edge id=":C2_13" function="internal">
        <lane id=":C2_13_0" index="0" speed="13.89" length="20.80" shape="289.60,295.20 310.40,295.20"/>
        <lane id=":C2_13_1" index="1" speed="13.89" length="20.80" shape="289.60,298.40 310.40,298.40"/>
    </edge>
    <edge id=":C2_15" function="internal">
        <lane id=":C2_15_0" index="0" speed="9.26" length="5.01" shape="289.60,298.40 294.56,299.11"/>
    </edge>
    <edge id=":C2_19" function="internal">
        <lane id=":C2_19_0" index="0" speed="9.26" length="14.34" shape="294.56,299.11 294.85,299.15 298.60,301.40 300.85,305.15 301.60,310.40"/>
    </edge>
    <edge id=":C3_0" function="internal">
        <lane id=":C3_0_0" index="0" speed="13.89" length="20.80" shape="310.40,454.80 289.60,454.80"/>
        <lane id=":C3_0_1" index="1" speed="13.89" length="20.80" shape="310.40,451.60 289.60,451.60"/>
    </edge>
    <edge id=":C3_2" function="internal">
        <lane id=":C3_2_0" index="0" speed="9.26" length="5.01" shape="310.40,451.60 305.44,450.89"/>
    </edge>
    <edge id=":C3_9" function="internal">
        <lane id=":C3_9_0" index="0" speed="9.26" length="14.34" shape="305.44,450.89 305.15,450.85 301.40,448.60 299.15,444.85 298.40,439.60"/>
    </edge>
    <edge id=":C3_3" function="internal">
        <lane id=":C3_3_0" index="0" speed="6.51" length="9.03" shape="304.80,439.60 305.15,442.05 306.20,443.80 307.95,444.85 310.40,445.20"/>
        <lane id=":C3_3_1" index="1" speed="8.00" length="14.19" shape="301.60,439.60 302.15,443.45 303.80,446.20 306.55,447.85 310.40,448.40"/>
    </edge>
    <edge id=":C3_5" function="internal">
        <lane id=":C3_5_0" index="0" speed="9.26" length="19.35" shape="301.60,439.60 300.85,444.85 298.60,448.60 294.85,450.85 289.60,451.60"/>
    </edge>
    <edge id=":C3_6" function="internal">
        <lane id=":C3_6_0" index="0" speed="6.51" length="9.03" shape="289.60,445.20 292.05,444.85 293.80,443.80 294.85,442.05 295.20,439.60"/>
    </edge>
    <edge id=":C3_7" function="internal">
        <lane id=":C3_7_0" index="0" speed="13.89" length="20.80" shape="289.60,445.20 310.40,445.20"/>
        <lane id=":C3_7_1" index="1" speed="13.89" length="20.80" shape="289.60,448.40 310.40,448.40"/>
    </edge>
    <edge id=":D0_0" function="internal">
        <lane id=":D0_0_0" index="0" speed="3.90" length="2.58" shape="445.20,6.40 445.10,5.70 444.80,5.20 444.30,4.90 443.60,4.80"/>
        <lane id=":D0_0_1" index="1" speed="6.08" length="7.74" shape="448.40,6.40 448.10,4.30 447.20,2.80 445.70,1.90 443.60,1.60"/>
    </edge>
    <edge id=":D0_2" function="internal">
        <lane id=":D0_2_0" index="0" speed="8.96" length="18.06" shape="443.60,-4.80 448.50,-4.10 452.00,-2.00 454.10,1.50 454.80,6.40"/>
        <lane id=":D0_2_1" index="1" speed="7.66" length="12.90" shape="443.60,-1.60 447.10,-1.10 449.60,0.40 451.10,2.90 451.60,6.40"/>
    </edge>
    <edge id=":D1_0" function="internal">
        <lane id=":D1_0_0" index="0" speed="6.51" length="9.03" shape="445.20,160.40 444.85,157.95 443.80,156.20 442.05,155.15 439.60,154.80"/>
    </edge>
    <edge id=":D1_1" function="internal">
        <lane id=":D1_1_0" index="0" speed="13.89" length="20.80" shape="445.20,160.40 445.20,139.60"/>
        <lane id=":D1_1_1" index="1" speed="13.89" length="20.80" shape="448.40,160.40 448.40,139.60"/>
    </edge>
    <edge id=":D1_3" function="internal">
        <lane id=":D1_3_0" index="0" speed="13.89" length="20.80" shape="454.80,139.60 454.80,160.40"/>
        <lane id=":D1_3_1" index="1" speed="13.89" length="20.80" shape="451.60,139.60 451.60,160.40"/>
    </edge>
    <edge id=":D1_5" function="internal">
        <lane id=":D1_5_0" index="0" speed="9.26" length="5.01" shape="451.60,139.60 450.89,144.56"/>
    </edge>
    <edge id=":D1_9" function="internal">
        <lane id=":D1_9_0" index="0" speed="9.26" length="14.34" shape="450.89,144.56 450.85,144.85 448.60,148.60 444.85,150.85 439.60,151.60"/>
    </edge>
    <edge id=":D1_6" function="internal">
        <lane id=":D1_6_0" index="0" speed="6.51" length="9.03" shape="439.60,145.20 442.05,144.85 443.80,143.80 444.85,142.05 445.20,139.60"/>
        <lane id=":D1_6_1" index="1" speed="8.00" length="14.19" shape="439.60,148.40 443.45,147.85 446.20,146.20 447.85,143.45 448.40,139.60"/>
    </edge>
    <edge id=":D1_8" function="internal">
        <lane id=":D1_8_0" index="0" speed="9.26" length="19.35" shape="439.60,148.40 444.85,149.15 448.60,151.40 450.85,155.15 451.60,160.40"/>
    </edge>
    <edge id=":D2_0" function="internal">
        <lane id=":D2_0_0" index="0" speed="6.51" length="9.03" shape="445.20,310.40 444.85,307.95 443.80,306.20 442.05,305.15 439.60,304.80"/>
    </edge>
    <edge id=":D2_1" function="internal">
        <lane id=":D2_1_0" index="0" speed="13.89" length="20.80" shape="445.20,310.40 445.20,289.60"/>
        <lane id=":D2_1_1" index="1" speed="13.89" length="20.80" shape="448.40,310.40 448.40,289.60"/>
    </edge>
    <edge id=":D2_3" function="internal">
        <lane id=":D2_3_0" index="0" speed="13.89" length="20.80" shape="454.80,289.60 454.80,310.40"/>
        <lane id=":D2_3_1" index="1" speed="13.89" length="20.80" shape="451.60,289.60 451.60,310.40"/>
    </edge>
    <edge id=":D2_5" function="internal">
        <lane id=":D2_5_0" index="0" speed="9.26" length="5.01" shape="451.60,289.60 450.89,294.56"/>
    </edge>
    <edge id=":D2_9" function="internal">
        <lane id=":D2_9_0" index="0" speed="9.26" length="14.34" shape="450.89,294.56 450.85,294.85 448.60,298.60 444.85,300.85 439.60,301.60"/>
    </edge>
    <edge id=":D2_6" function="internal">
        <lane id=":D2_6_0" index="0" speed="6.51" length="9.03" shape="439.60,295.20 442.05,294.85 443.80,293.80 444.85,292.05 445.20,289.60"/>
        <lane id=":D2_6_1" index="1" speed="8.00" length="14.19" shape="439.60,298.40 443.45,297.85 446.20,296.20 447.85,293.45 448.40,289.60"/>
    </edge>
    <edge id=":D2_8" function="internal">
        <lane id=":D2_8_0" index="0" speed="9.26" length="19.35" shape="439.60,298.40 444.85,299.15 448.60,301.40 450.85,305.15 451.60,310.40"/>
    </edge>
    <edge id=":D3_0" function="internal">
        <lane id=":D3_0_0" index="0" speed="8.96" length="18.06" shape="454.80,443.60 454.10,448.50 452.00,452.00 448.50,454.10 443.60,454.80"/>
        <lane id=":D3_0_1" index="1" speed="7.66" length="12.90" shape="451.60,443.60 451.10,447.10 449.60,449.60 447.10,451.10 443.60,451.60"/>
    </edge>
    <edge id=":D3_2" function="internal">
        <lane id=":D3_2_0" index="0" speed="3.90" length="2.58" shape="443.60,445.20 444.30,445.10 444.80,444.80 445.10,444.30 445.20,443.60"/>
        <lane id=":D3_2_1" index="1" speed="6.08" length="7.74" shape="443.60,448.40 445.70,448.10 447.20,447.20 448.10,445.70 448.40,443.60"/>
    </edge>

    <edge id="A0A1" from="A0" to="A1" priority="-1">
        <lane id="A0A1_0" index="0" speed="13.89" length="133.20" shape="4.80,6.40 4.80,139.60"/>
        <lane id="A0A1_1" index="1" speed="13.89" length="133.20" shape="1.60,6.40 1.60,139.60"/>
    </edge>